<?xml version="1.0" encoding="UTF-8"?>

<!-- generated on Tue Apr 26 01:35:19 2016 by SUMO duarouter Version 0.25.0
<?xml version="1.0" encoding="UTF-8"?>

<configuration xmlns:xsi="http://www.w3.org/2001/XMLSchema-instance" xsi:noNamespaceSchemaLocation="http://sumo.dlr.de/xsd/duarouterConfiguration.xsd">

    <input>
        <net-file value="input.net.xml"/>
        <flow-files value="input.flow.xml"/>
    </input>

    <output>
        <output-file value="input.rou.xml"/>
    </output>

    <processing>
        <ignore-errors value="true"/>
    </processing>

    <defaults>
        <departlane value="allowed"/>
        <departspeed value="random"/>
    </defaults>

</configuration>
-->

<routes xmlns:xsi="http://www.w3.org/2001/XMLSchema-instance" xsi:noNamespaceSchemaLocation="http://sumo.dlr.de/xsd/routes_file.xsd">
    <vehicle id="0.0" depart="0.00" departLane="allowed" departSpeed="random">
        <route edges="a b"/>
    </vehicle>
    <vehicle id="0.1" depart="3.00" departLane="allowed" departSpeed="random">
        <route edges="a b"/>
    </vehicle>
    <vehicle id="0.2" depart="6.00" departLane="allowed" departSpeed="random">
        <route edges="a b"/>
    </vehicle>
    <vehicle id="0.3" depart="9.00" departLane="allowed" departSpeed="random">
        <route edges="a b"/>
    </vehicle>
    <vehicle id="0.4" depart="12.00" departLane="allowed" departSpeed="random">
        <route edges="a b"/>
    </vehicle>
    <vehicle id="0.5" depart="15.00" departLane="allowed" departSpeed="random">
        <route edges="a b"/>
    </vehicle>
    <vehicle id="0.6" depart="18.00" departLane="allowed" departSpeed="random">
        <route edges="a b"/>
    </vehicle>
    <vehicle id="0.7" depart="21.00" departLane="allowed" departSpeed="random">
        <route edges="a b"/>
    </vehicle>
    <vehicle id="0.8" depart="24.00" departLane="allowed" departSpeed="random">
        <route edges="a b"/>
    </vehicle>
    <vehicle id="0.9" depart="27.00" departLane="allowed" departSpeed="random">
        <route edges="a b"/>
    </vehicle>
    <vehicle id="0.10" depart="30.00" departLane="allowed" departSpeed="random">
        <route edges="a b"/>
    </vehicle>
    <vehicle id="0.11" depart="33.00" departLane="allowed" departSpeed="random">
        <route edges="a b"/>
    </vehicle>
    <vehicle id="0.12" depart="36.00" departLane="allowed" departSpeed="random">
        <route edges="a b"/>
    </vehicle>
    <vehicle id="0.13" depart="39.00" departLane="allowed" departSpeed="random">
        <route edges="a b"/>
    </vehicle>
    <vehicle id="0.14" depart="42.00" departLane="allowed" departSpeed="random">
        <route edges="a b"/>
    </vehicle>
    <vehicle id="0.15" depart="45.00" departLane="allowed" departSpeed="random">
        <route edges="a b"/>
    </vehicle>
    <vehicle id="0.16" depart="48.00" departLane="allowed" departSpeed="random">
        <route edges="a b"/>
    </vehicle>
    <vehicle id="0.17" depart="51.00" departLane="allowed" departSpeed="random">
        <route edges="a b"/>
    </vehicle>
    <vehicle id="0.18" depart="54.00" departLane="allowed" departSpeed="random">
        <route edges="a b"/>
    </vehicle>
    <vehicle id="0.19" depart="57.00" departLane="allowed" departSpeed="random">
        <route edges="a b"/>
    </vehicle>
    <vehicle id="0.20" depart="60.00" departLane="allowed" departSpeed="random">
        <route edges="a b"/>
    </vehicle>
    <vehicle id="0.21" depart="63.00" departLane="allowed" departSpeed="random">
        <route edges="a b"/>
    </vehicle>
    <vehicle id="0.22" depart="66.00" departLane="allowed" departSpeed="random">
        <route edges="a b"/>
    </vehicle>
    <vehicle id="0.23" depart="69.00" departLane="allowed" departSpeed="random">
        <route edges="a b"/>
    </vehicle>
    <vehicle id="0.24" depart="72.00" departLane="allowed" departSpeed="random">
        <route edges="a b"/>
    </vehicle>
    <vehicle id="0.25" depart="75.00" departLane="allowed" departSpeed="random">
        <route edges="a b"/>
    </vehicle>
    <vehicle id="0.26" depart="78.00" departLane="allowed" departSpeed="random">
        <route edges="a b"/>
    </vehicle>
    <vehicle id="0.27" depart="81.00" departLane="allowed" departSpeed="random">
        <route edges="a b"/>
    </vehicle>
    <vehicle id="0.28" depart="84.00" departLane="allowed" departSpeed="random">
        <route edges="a b"/>
    </vehicle>
    <vehicle id="0.29" depart="87.00" departLane="allowed" departSpeed="random">
        <route edges="a b"/>
    </vehicle>
    <vehicle id="0.30" depart="90.00" departLane="allowed" departSpeed="random">
        <route edges="a b"/>
    </vehicle>
    <vehicle id="0.31" depart="93.00" departLane="allowed" departSpeed="random">
        <route edges="a b"/>
    </vehicle>
    <vehicle id="0.32" depart="96.00" departLane="allowed" departSpeed="random">
        <route edges="a b"/>
    </vehicle>
    <vehicle id="0.33" depart="99.00" departLane="allowed" departSpeed="random">
        <route edges="a b"/>
    </vehicle>
    <vehicle id="0.34" depart="102.00" departLane="allowed" departSpeed="random">
        <route edges="a b"/>
    </vehicle>
    <vehicle id="0.35" depart="105.00" departLane="allowed" departSpeed="random">
        <route edges="a b"/>
    </vehicle>
    <vehicle id="0.36" depart="108.00" departLane="allowed" departSpeed="random">
        <route edges="a b"/>
    </vehicle>
    <vehicle id="0.37" depart="111.00" departLane="allowed" departSpeed="random">
        <route edges="a b"/>
    </vehicle>
    <vehicle id="0.38" depart="114.00" departLane="allowed" departSpeed="random">
        <route edges="a b"/>
    </vehicle>
    <vehicle id="0.39" depart="117.00" departLane="allowed" departSpeed="random">
        <route edges="a b"/>
    </vehicle>
    <vehicle id="0.40" depart="120.00" departLane="allowed" departSpeed="random">
        <route edges="a b"/>
    </vehicle>
    <vehicle id="0.41" depart="123.00" departLane="allowed" departSpeed="random">
        <route edges="a b"/>
    </vehicle>
    <vehicle id="0.42" depart="126.00" departLane="allowed" departSpeed="random">
        <route edges="a b"/>
    </vehicle>
    <vehicle id="0.43" depart="129.00" departLane="allowed" departSpeed="random">
        <route edges="a b"/>
    </vehicle>
    <vehicle id="0.44" depart="132.00" departLane="allowed" departSpeed="random">
        <route edges="a b"/>
    </vehicle>
    <vehicle id="0.45" depart="135.00" departLane="allowed" departSpeed="random">
        <route edges="a b"/>
    </vehicle>
    <vehicle id="0.46" depart="138.00" departLane="allowed" departSpeed="random">
        <route edges="a b"/>
    </vehicle>
    <vehicle id="0.47" depart="141.00" departLane="allowed" departSpeed="random">
        <route edges="a b"/>
    </vehicle>
    <vehicle id="0.48" depart="144.00" departLane="allowed" departSpeed="random">
        <route edges="a b"/>
    </vehicle>
    <vehicle id="0.49" depart="147.00" departLane="allowed" departSpeed="random">
        <route edges="a b"/>
    </vehicle>
    <vehicle id="0.50" depart="150.00" departLane="allowed" departSpeed="random">
        <route edges="a b"/>
    </vehicle>
    <vehicle id="0.51" depart="153.00" departLane="allowed" departSpeed="random">
        <route edges="a b"/>
    </vehicle>
    <vehicle id="0.52" depart="156.00" departLane="allowed" departSpeed="random">
        <route edges="a b"/>
    </vehicle>
    <vehicle id="0.53" depart="159.00" departLane="allowed" departSpeed="random">
        <route edges="a b"/>
    </vehicle>
    <vehicle id="0.54" depart="162.00" departLane="allowed" departSpeed="random">
        <route edges="a b"/>
    </vehicle>
    <vehicle id="0.55" depart="165.00" departLane="allowed" departSpeed="random">
        <route edges="a b"/>
    </vehicle>
    <vehicle id="0.56" depart="168.00" departLane="allowed" departSpeed="random">
        <route edges="a b"/>
    </vehicle>
    <vehicle id="0.57" depart="171.00" departLane="allowed" departSpeed="random">
        <route edges="a b"/>
    </vehicle>
    <vehicle id="0.58" depart="174.00" departLane="allowed" departSpeed="random">
        <route edges="a b"/>
    </vehicle>
    <vehicle id="0.59" depart="177.00" departLane="allowed" departSpeed="random">
        <route edges="a b"/>
    </vehicle>
    <vehicle id="0.60" depart="180.00" departLane="allowed" departSpeed="random">
        <route edges="a b"/>
    </vehicle>
    <vehicle id="0.61" depart="183.00" departLane="allowed" departSpeed="random">
        <route edges="a b"/>
    </vehicle>
    <vehicle id="0.62" depart="186.00" departLane="allowed" departSpeed="random">
        <route edges="a b"/>
    </vehicle>
    <vehicle id="0.63" depart="189.00" departLane="allowed" departSpeed="random">
        <route edges="a b"/>
    </vehicle>
    <vehicle id="0.64" depart="192.00" departLane="allowed" departSpeed="random">
        <route edges="a b"/>
    </vehicle>
    <vehicle id="0.65" depart="195.00" departLane="allowed" departSpeed="random">
        <route edges="a b"/>
    </vehicle>
    <vehicle id="0.66" depart="198.00" departLane="allowed" departSpeed="random">
        <route edges="a b"/>
    </vehicle>
    <vehicle id="0.67" depart="201.00" departLane="allowed" departSpeed="random">
        <route edges="a b"/>
    </vehicle>
    <vehicle id="0.68" depart="204.00" departLane="allowed" departSpeed="random">
        <route edges="a b"/>
    </vehicle>
    <vehicle id="0.69" depart="207.00" departLane="allowed" departSpeed="random">
        <route edges="a b"/>
    </vehicle>
    <vehicle id="0.70" depart="210.00" departLane="allowed" departSpeed="random">
        <route edges="a b"/>
    </vehicle>
    <vehicle id="0.71" depart="213.00" departLane="allowed" departSpeed="random">
        <route edges="a b"/>
    </vehicle>
    <vehicle id="0.72" depart="216.00" departLane="allowed" departSpeed="random">
        <route edges="a b"/>
    </vehicle>
    <vehicle id="0.73" depart="219.00" departLane="allowed" departSpeed="random">
        <route edges="a b"/>
    </vehicle>
    <vehicle id="0.74" depart="222.00" departLane="allowed" departSpeed="random">
        <route edges="a b"/>
    </vehicle>
    <vehicle id="0.75" depart="225.00" departLane="allowed" departSpeed="random">
        <route edges="a b"/>
    </vehicle>
    <vehicle id="0.76" depart="228.00" departLane="allowed" departSpeed="random">
        <route edges="a b"/>
    </vehicle>
    <vehicle id="0.77" depart="231.00" departLane="allowed" departSpeed="random">
        <route edges="a b"/>
    </vehicle>
    <vehicle id="0.78" depart="234.00" departLane="allowed" departSpeed="random">
        <route edges="a b"/>
    </vehicle>
    <vehicle id="0.79" depart="237.00" departLane="allowed" departSpeed="random">
        <route edges="a b"/>
    </vehicle>
</routes>
