<?xml version="1.0" encoding="UTF-8"?>

<!-- generated on Tue Apr 26 01:35:15 2016 by SUMO netconvert Version 0.25.0
<?xml version="1.0" encoding="UTF-8"?>

<configuration xmlns:xsi="http://www.w3.org/2001/XMLSchema-instance" xsi:noNamespaceSchemaLocation="http://sumo.dlr.de/xsd/netconvertConfiguration.xsd">

    <input>
        <node-files value="input.nod.xml"/>
        <edge-files value="input.edg.xml"/>
    </input>

    <output>
        <output-file value="input.net.xml"/>
    </output>

</configuration>
-->

<net version="0.25" xmlns:xsi="http://www.w3.org/2001/XMLSchema-instance" xsi:noNamespaceSchemaLocation="http://sumo.dlr.de/xsd/net_file.xsd">

    <location netOffset="0.00,0.00" convBoundary="0.00,0.00,2000.00,0.00" origBoundary="0.00,0.00,2000.00,0.00" projParameter="!"/>

    <edge id=":1_0" function="internal">
        <lane id=":1_0_0" index="0" speed="15.00" length="0.10" shape="1000.00,-8.25 1000.00,-8.25"/>
        <lane id=":1_0_1" index="1" speed="15.00" length="0.10" shape="1000.00,-4.95 1000.00,-4.95"/>
        <lane id=":1_0_2" index="2" speed="15.00" length="0.10" shape="1000.00,-1.65 1000.00,-1.65"/>
    </edge>

    <edge id="a" from="0" to="1" priority="1">
        <lane id="a_0" index="0" speed="15.00" length="1000.00" shape="0.00,-8.25 1000.00,-8.25"/>
        <lane id="a_1" index="1" speed="15.00" length="1000.00" shape="0.00,-4.95 1000.00,-4.95"/>
        <lane id="a_2" index="2" speed="15.00" length="1000.00" shape="0.00,-1.65 1000.00,-1.65"/>
    </edge>
    <edge id="b" from="1" to="2" priority="1">
        <lane id="b_0" index="0" speed="15.00" length="1000.00" shape="1000.00,-8.25 2000.00,-8.25"/>
        <lane id="b_1" index="1" speed="15.00" length="1000.00" shape="1000.00,-4.95 2000.00,-4.95"/>
        <lane id="b_2" index="2" speed="15.00" length="1000.00" shape="1000.00,-1.65 2000.00,-1.65"/>
    </edge>

    <junction id="0" type="unregulated" x="0.00" y="0.00" incLanes="" intLanes="" shape="0.00,-0.05 0.00,-9.85"/>
    <junction id="1" type="priority" x="1000.00" y="0.00" incLanes="a_0 a_1 a_2" intLanes=":1_0_0 :1_0_1 :1_0_2" shape="1000.00,-0.05 1000.00,-9.85 1000.00,-0.05">
        <request index="0" response="000" foes="000" cont="0"/>
        <request index="1" response="000" foes="000" cont="0"/>
        <request index="2" response="000" foes="000" cont="0"/>
    </junction>
    <junction id="2" type="unregulated" x="2000.00" y="0.00" incLanes="b_0 b_1 b_2" intLanes="" shape="2000.00,-9.85 2000.00,-0.05"/>

    <connection from="a" to="b" fromLane="0" toLane="0" via=":1_0_0" dir="s" state="M"/>
    <connection from="a" to="b" fromLane="1" toLane="1" via=":1_0_1" dir="s" state="M"/>
    <connection from="a" to="b" fromLane="2" toLane="2" via=":1_0_2" dir="s" state="M"/>

    <connection from=":1_0" to="b" fromLane="0" toLane="0" dir="s" state="M"/>
    <connection from=":1_0" to="b" fromLane="1" toLane="1" dir="s" state="M"/>
    <connection from=":1_0" to="b" fromLane="2" toLane="2" dir="s" state="M"/>

</net>
