<flows>
<flow id="0" from="a" to="b" begin="0" end="240" number="80"/>
</flows>
