<?xml version="1.0" encoding="UTF-8"?>

<!-- generated on Sun Mar 12 16:50:14 2017 by SUMO netconvert Version 0.19.0
<?xml version="1.0" encoding="UTF-8"?>

<configuration xmlns:xsi="http://www.w3.org/2001/XMLSchema-instance" xsi:noNamespaceSchemaLocation="http://sumo-sim.org/xsd/netconvertConfiguration.xsd">

    <input>
        <node-files value="ex_NODE.nod.xml"/>
        <edge-files value="ex_EDGE.edg.xml"/>
        <connection-files value="ex_CONNECTION.con.xml"/>
    </input>

    <output>
        <output-file value="MySUMONet.net.xml"/>
    </output>

</configuration>
-->

<net version="0.13" xmlns:xsi="http://www.w3.org/2001/XMLSchema-instance" xsi:noNamespaceSchemaLocation="http://sumo-sim.org/xsd/net_file.xsd">

    <location netOffset="0.00,0.00" convBoundary="0.00,0.00,3000.00,3000.00" origBoundary="0.00,0.00,3000.00,3000.00" projParameter="!"/>

    <edge id=":node1_0" function="internal">
        <lane id=":node1_0_0" index="0" speed="15.00" length="4.82" shape="998.35,0.00 999.17,-1.24 1000.00,-1.65 1000.83,-1.24 1001.65,0.00"/>
    </edge>
    <edge id=":node10_0" function="internal">
        <lane id=":node10_0_0" index="0" speed="15.00" length="4.82" shape="3000.00,1998.35 3001.24,1999.17 3001.65,2000.00 3001.24,2000.83 3000.00,2001.65"/>
    </edge>
    <edge id=":node11_0" function="internal">
        <lane id=":node11_0_0" index="0" speed="15.00" length="4.82" shape="1001.65,3000.00 1000.83,3001.24 1000.00,3001.65 999.17,3001.24 998.35,3000.00"/>
    </edge>
    <edge id=":node12_0" function="internal">
        <lane id=":node12_0_0" index="0" speed="15.00" length="4.82" shape="2001.65,3000.00 2000.83,3001.24 2000.00,3001.65 1999.17,3001.24 1998.35,3000.00"/>
    </edge>
    <edge id=":node2_0" function="internal">
        <lane id=":node2_0_0" index="0" speed="15.00" length="4.82" shape="1998.35,0.00 1999.17,-1.24 2000.00,-1.65 2000.83,-1.24 2001.65,0.00"/>
    </edge>
    <edge id=":node3_0" function="internal">
        <lane id=":node3_0_0" index="0" speed="15.00" length="4.82" shape="0.00,1001.65 -1.24,1000.83 -1.65,1000.00 -1.24,999.17 0.00,998.35"/>
    </edge>
    <edge id=":node4_0" function="internal">
        <lane id=":node4_0_0" index="0" speed="15.00" length="5.00" shape="995.05,1008.05 994.86,1006.69 994.27,1005.73 993.31,1005.14 991.95,1004.95"/>
    </edge>
    <edge id=":node4_1" function="internal">
        <lane id=":node4_1_0" index="0" speed="15.00" length="16.10" shape="995.05,1008.05 995.05,1003.27 995.05,1000.00 995.05,996.73 995.05,991.95"/>
        <lane id=":node4_1_1" index="1" speed="15.00" length="16.10" shape="998.35,1008.05 998.35,1003.27 998.35,1000.00 998.35,996.73 998.35,991.95"/>
    </edge>
    <edge id=":node4_3" function="internal">
        <lane id=":node4_3_0" index="0" speed="15.00" length="8.84" shape="998.35,1008.05 998.96,1003.81 1000.78,1000.78 1001.65,1000.25"/>
    </edge>
    <edge id=":node4_4" function="internal">
        <lane id=":node4_4_0" index="0" speed="15.00" length="2.41" shape="998.35,1008.05 999.17,1006.81 1000.00,1006.40"/>
    </edge>
    <edge id=":node4_13" function="internal">
        <lane id=":node4_13_0" index="0" speed="15.00" length="6.80" shape="1001.65,1000.25 1003.81,998.96 1008.05,998.35"/>
    </edge>
    <edge id=":node4_14" function="internal">
        <lane id=":node4_14_0" index="0" speed="15.00" length="2.41" shape="1000.00,1006.40 1000.83,1006.81 1001.65,1008.05"/>
    </edge>
    <edge id=":node4_5" function="internal">
        <lane id=":node4_5_0" index="0" speed="15.00" length="5.00" shape="1008.05,1004.95 1006.69,1005.14 1005.73,1005.73 1005.14,1006.69 1004.95,1008.05"/>
    </edge>
    <edge id=":node4_6" function="internal">
        <lane id=":node4_6_0" index="0" speed="15.00" length="16.10" shape="1008.05,1001.65 1003.27,1001.65 1000.00,1001.65 996.73,1001.65 991.95,1001.65"/>
    </edge>
    <edge id=":node4_7" function="internal">
        <lane id=":node4_7_0" index="0" speed="15.00" length="15.64" shape="1008.05,1001.65 1003.81,1001.04 1000.78,999.22 998.96,996.19 998.35,991.95"/>
    </edge>
    <edge id=":node4_8" function="internal">
        <lane id=":node4_8_0" index="0" speed="15.00" length="4.82" shape="1008.05,1001.65 1006.81,1000.83 1006.40,1000.00 1006.81,999.17 1008.05,998.35"/>
    </edge>
    <edge id=":node4_9" function="internal">
        <lane id=":node4_9_0" index="0" speed="15.00" length="16.10" shape="1004.95,991.95 1004.95,996.73 1004.95,1000.00 1004.95,1003.27 1004.95,1008.05"/>
        <lane id=":node4_9_1" index="1" speed="15.00" length="16.10" shape="1001.65,991.95 1001.65,996.73 1001.65,1000.00 1001.65,1003.27 1001.65,1008.05"/>
    </edge>
    <edge id=":node4_11" function="internal">
        <lane id=":node4_11_0" index="0" speed="15.00" length="16.10" shape="991.95,995.05 996.73,995.05 1000.00,995.05 1003.27,995.05 1008.05,995.05"/>
        <lane id=":node4_11_1" index="1" speed="15.00" length="16.10" shape="991.95,998.35 996.73,998.35 1000.00,998.35 1003.27,998.35 1008.05,998.35"/>
    </edge>
    <edge id=":node5_0" function="internal">
        <lane id=":node5_0_0" index="0" speed="15.00" length="5.00" shape="1995.05,1008.05 1994.86,1006.69 1994.27,1005.73 1993.31,1005.14 1991.95,1004.95"/>
    </edge>
    <edge id=":node5_1" function="internal">
        <lane id=":node5_1_0" index="0" speed="15.00" length="16.10" shape="1995.05,1008.05 1995.05,1003.27 1995.05,1000.00 1995.05,996.73 1995.05,991.95"/>
        <lane id=":node5_1_1" index="1" speed="15.00" length="16.10" shape="1998.35,1008.05 1998.35,1003.27 1998.35,1000.00 1998.35,996.73 1998.35,991.95"/>
    </edge>
    <edge id=":node5_3" function="internal">
        <lane id=":node5_3_0" index="0" speed="15.00" length="8.84" shape="1998.35,1008.05 1998.96,1003.81 2000.77,1000.78 2001.65,1000.25"/>
    </edge>
    <edge id=":node5_4" function="internal">
        <lane id=":node5_4_0" index="0" speed="15.00" length="2.41" shape="1998.35,1008.05 1999.17,1006.81 2000.00,1006.40"/>
    </edge>
    <edge id=":node5_13" function="internal">
        <lane id=":node5_13_0" index="0" speed="15.00" length="6.80" shape="2001.65,1000.25 2003.81,998.96 2008.05,998.35"/>
    </edge>
    <edge id=":node5_14" function="internal">
        <lane id=":node5_14_0" index="0" speed="15.00" length="2.41" shape="2000.00,1006.40 2000.83,1006.81 2001.65,1008.05"/>
    </edge>
    <edge id=":node5_5" function="internal">
        <lane id=":node5_5_0" index="0" speed="15.00" length="16.10" shape="2008.05,1004.95 2003.27,1004.95 2000.00,1004.95 1996.73,1004.95 1991.95,1004.95"/>
        <lane id=":node5_5_1" index="1" speed="15.00" length="16.10" shape="2008.05,1001.65 2003.27,1001.65 2000.00,1001.65 1996.73,1001.65 1991.95,1001.65"/>
    </edge>
    <edge id=":node5_7" function="internal">
        <lane id=":node5_7_0" index="0" speed="15.00" length="16.10" shape="2004.95,991.95 2004.95,996.73 2004.95,1000.00 2004.95,1003.27 2004.95,1008.05"/>
        <lane id=":node5_7_1" index="1" speed="15.00" length="16.10" shape="2001.65,991.95 2001.65,996.73 2001.65,1000.00 2001.65,1003.27 2001.65,1008.05"/>
    </edge>
    <edge id=":node5_9" function="internal">
        <lane id=":node5_9_0" index="0" speed="15.00" length="5.00" shape="1991.95,995.05 1993.31,994.86 1994.27,994.27 1994.86,993.31 1995.05,991.95"/>
    </edge>
    <edge id=":node5_10" function="internal">
        <lane id=":node5_10_0" index="0" speed="15.00" length="16.54" shape="1991.95,998.35 1996.78,997.83 2000.00,996.70 2003.22,995.57 2008.05,995.05"/>
    </edge>
    <edge id=":node5_11" function="internal">
        <lane id=":node5_11_0" index="0" speed="15.00" length="15.64" shape="1991.95,998.35 1996.19,998.96 1999.22,1000.78 2001.04,1003.81 2001.65,1008.05"/>
    </edge>
    <edge id=":node5_12" function="internal">
        <lane id=":node5_12_0" index="0" speed="15.00" length="4.82" shape="1991.95,998.35 1993.19,999.17 1993.60,1000.00 1993.19,1000.83 1991.95,1001.65"/>
    </edge>
    <edge id=":node6_0" function="internal">
        <lane id=":node6_0_0" index="0" speed="15.00" length="4.82" shape="3000.00,998.35 3001.24,999.17 3001.65,1000.00 3001.24,1000.83 3000.00,1001.65"/>
    </edge>
    <edge id=":node7_0" function="internal">
        <lane id=":node7_0_0" index="0" speed="15.00" length="4.82" shape="0.00,2001.65 -1.24,2000.83 -1.65,2000.00 -1.24,1999.17 0.00,1998.35"/>
    </edge>
    <edge id=":node8_0" function="internal">
        <lane id=":node8_0_0" index="0" speed="15.00" length="16.10" shape="995.05,2008.05 995.05,2003.27 995.05,2000.00 995.05,1996.73 995.05,1991.95"/>
        <lane id=":node8_0_1" index="1" speed="15.00" length="16.10" shape="998.35,2008.05 998.35,2003.27 998.35,2000.00 998.35,1996.73 998.35,1991.95"/>
    </edge>
    <edge id=":node8_2" function="internal">
        <lane id=":node8_2_0" index="0" speed="15.00" length="5.00" shape="1008.05,2004.95 1006.69,2005.14 1005.73,2005.73 1005.14,2006.69 1004.95,2008.05"/>
    </edge>
    <edge id=":node8_3" function="internal">
        <lane id=":node8_3_0" index="0" speed="15.00" length="16.54" shape="1008.05,2001.65 1003.22,2002.17 1000.00,2003.30 996.78,2004.43 991.95,2004.95"/>
    </edge>
    <edge id=":node8_4" function="internal">
        <lane id=":node8_4_0" index="0" speed="15.00" length="15.64" shape="1008.05,2001.65 1003.81,2001.04 1000.78,1999.23 998.96,1996.19 998.35,1991.95"/>
    </edge>
    <edge id=":node8_5" function="internal">
        <lane id=":node8_5_0" index="0" speed="15.00" length="4.82" shape="1008.05,2001.65 1006.81,2000.83 1006.40,2000.00 1006.81,1999.17 1008.05,1998.35"/>
    </edge>
    <edge id=":node8_6" function="internal">
        <lane id=":node8_6_0" index="0" speed="15.00" length="5.00" shape="1004.95,1991.95 1005.14,1993.31 1005.73,1994.28 1006.69,1994.86 1008.05,1995.05"/>
    </edge>
    <edge id=":node8_7" function="internal">
        <lane id=":node8_7_0" index="0" speed="15.00" length="16.10" shape="1004.95,1991.95 1004.95,1996.73 1004.95,2000.00 1004.95,2003.27 1004.95,2008.05"/>
        <lane id=":node8_7_1" index="1" speed="15.00" length="16.10" shape="1001.65,1991.95 1001.65,1996.73 1001.65,2000.00 1001.65,2003.27 1001.65,2008.05"/>
    </edge>
    <edge id=":node8_9" function="internal">
        <lane id=":node8_9_0" index="0" speed="15.00" length="8.84" shape="1001.65,1991.95 1001.04,1996.19 999.22,1999.22 998.35,1999.75"/>
    </edge>
    <edge id=":node8_10" function="internal">
        <lane id=":node8_10_0" index="0" speed="15.00" length="2.41" shape="1001.65,1991.95 1000.83,1993.19 1000.00,1993.60"/>
    </edge>
    <edge id=":node8_13" function="internal">
        <lane id=":node8_13_0" index="0" speed="15.00" length="6.80" shape="998.35,1999.75 996.19,2001.04 991.95,2001.65"/>
    </edge>
    <edge id=":node8_14" function="internal">
        <lane id=":node8_14_0" index="0" speed="15.00" length="2.41" shape="1000.00,1993.60 999.17,1993.19 998.35,1991.95"/>
    </edge>
    <edge id=":node8_11" function="internal">
        <lane id=":node8_11_0" index="0" speed="15.00" length="16.10" shape="991.95,1995.05 996.73,1995.05 1000.00,1995.05 1003.27,1995.05 1008.05,1995.05"/>
        <lane id=":node8_11_1" index="1" speed="15.00" length="16.10" shape="991.95,1998.35 996.73,1998.35 1000.00,1998.35 1003.27,1998.35 1008.05,1998.35"/>
    </edge>
    <edge id=":node9_0" function="internal">
        <lane id=":node9_0_0" index="0" speed="15.00" length="16.10" shape="1995.05,2008.05 1995.05,2003.27 1995.05,2000.00 1995.05,1996.73 1995.05,1991.95"/>
        <lane id=":node9_0_1" index="1" speed="15.00" length="16.10" shape="1998.35,2008.05 1998.35,2003.27 1998.35,2000.00 1998.35,1996.73 1998.35,1991.95"/>
    </edge>
    <edge id=":node9_2" function="internal">
        <lane id=":node9_2_0" index="0" speed="15.00" length="16.10" shape="2008.05,2004.95 2003.27,2004.95 2000.00,2004.95 1996.73,2004.95 1991.95,2004.95"/>
        <lane id=":node9_2_1" index="1" speed="15.00" length="16.10" shape="2008.05,2001.65 2003.27,2001.65 2000.00,2001.65 1996.73,2001.65 1991.95,2001.65"/>
    </edge>
    <edge id=":node9_4" function="internal">
        <lane id=":node9_4_0" index="0" speed="15.00" length="5.00" shape="2004.95,1991.95 2005.14,1993.31 2005.73,1994.27 2006.69,1994.86 2008.05,1995.05"/>
    </edge>
    <edge id=":node9_5" function="internal">
        <lane id=":node9_5_0" index="0" speed="15.00" length="16.10" shape="2004.95,1991.95 2004.95,1996.73 2004.95,2000.00 2004.95,2003.27 2004.95,2008.05"/>
        <lane id=":node9_5_1" index="1" speed="15.00" length="16.10" shape="2001.65,1991.95 2001.65,1996.73 2001.65,2000.00 2001.65,2003.27 2001.65,2008.05"/>
    </edge>
    <edge id=":node9_7" function="internal">
        <lane id=":node9_7_0" index="0" speed="15.00" length="8.84" shape="2001.65,1991.95 2001.04,1996.19 1999.23,1999.22 1998.35,1999.75"/>
    </edge>
    <edge id=":node9_8" function="internal">
        <lane id=":node9_8_0" index="0" speed="15.00" length="2.41" shape="2001.65,1991.95 2000.83,1993.19 2000.00,1993.60"/>
    </edge>
    <edge id=":node9_13" function="internal">
        <lane id=":node9_13_0" index="0" speed="15.00" length="6.80" shape="1998.35,1999.75 1996.19,2001.04 1991.95,2001.65"/>
    </edge>
    <edge id=":node9_14" function="internal">
        <lane id=":node9_14_0" index="0" speed="15.00" length="2.41" shape="2000.00,1993.60 1999.17,1993.19 1998.35,1991.95"/>
    </edge>
    <edge id=":node9_9" function="internal">
        <lane id=":node9_9_0" index="0" speed="15.00" length="5.00" shape="1991.95,1995.05 1993.31,1994.86 1994.28,1994.27 1994.86,1993.31 1995.05,1991.95"/>
    </edge>
    <edge id=":node9_10" function="internal">
        <lane id=":node9_10_0" index="0" speed="15.00" length="16.10" shape="1991.95,1998.35 1996.73,1998.35 2000.00,1998.35 2003.27,1998.35 2008.05,1998.35"/>
    </edge>
    <edge id=":node9_11" function="internal">
        <lane id=":node9_11_0" index="0" speed="15.00" length="15.64" shape="1991.95,1998.35 1996.19,1998.96 1999.22,2000.77 2001.04,2003.81 2001.65,2008.05"/>
    </edge>
    <edge id=":node9_12" function="internal">
        <lane id=":node9_12_0" index="0" speed="15.00" length="4.82" shape="1991.95,1998.35 1993.19,1999.17 1993.60,2000.00 1993.19,2000.83 1991.95,2001.65"/>
    </edge>

    <edge id="edge-1-4" from="node1" to="node4" priority="75">
        <lane id="edge-1-4_0" index="0" speed="15.00" length="991.95" shape="1004.95,0.00 1004.95,991.95"/>
        <lane id="edge-1-4_1" index="1" speed="15.00" length="991.95" shape="1001.65,0.00 1001.65,991.95"/>
    </edge>
    <edge id="edge-10-9" from="node10" to="node9" priority="75">
        <lane id="edge-10-9_0" index="0" speed="15.00" length="991.95" shape="3000.00,2004.95 2008.05,2004.95"/>
        <lane id="edge-10-9_1" index="1" speed="15.00" length="991.95" shape="3000.00,2001.65 2008.05,2001.65"/>
    </edge>
    <edge id="edge-11-8" from="node11" to="node8" priority="75">
        <lane id="edge-11-8_0" index="0" speed="15.00" length="991.95" shape="995.05,3000.00 995.05,2008.05"/>
        <lane id="edge-11-8_1" index="1" speed="15.00" length="991.95" shape="998.35,3000.00 998.35,2008.05"/>
    </edge>
    <edge id="edge-12-9" from="node12" to="node9" priority="75">
        <lane id="edge-12-9_0" index="0" speed="15.00" length="991.95" shape="1995.05,3000.00 1995.05,2008.05"/>
        <lane id="edge-12-9_1" index="1" speed="15.00" length="991.95" shape="1998.35,3000.00 1998.35,2008.05"/>
    </edge>
    <edge id="edge-2-5" from="node2" to="node5" priority="75">
        <lane id="edge-2-5_0" index="0" speed="15.00" length="991.95" shape="2004.95,0.00 2004.95,991.95"/>
        <lane id="edge-2-5_1" index="1" speed="15.00" length="991.95" shape="2001.65,0.00 2001.65,991.95"/>
    </edge>
    <edge id="edge-3-4" from="node3" to="node4" priority="75">
        <lane id="edge-3-4_0" index="0" speed="15.00" length="991.95" shape="0.00,995.05 991.95,995.05"/>
        <lane id="edge-3-4_1" index="1" speed="15.00" length="991.95" shape="0.00,998.35 991.95,998.35"/>
    </edge>
    <edge id="edge-4-1" from="node4" to="node1" priority="75">
        <lane id="edge-4-1_0" index="0" speed="15.00" length="991.95" shape="995.05,991.95 995.05,0.00"/>
        <lane id="edge-4-1_1" index="1" speed="15.00" length="991.95" shape="998.35,991.95 998.35,0.00"/>
    </edge>
    <edge id="edge-4-3" from="node4" to="node3" priority="75">
        <lane id="edge-4-3_0" index="0" speed="15.00" length="991.95" shape="991.95,1004.95 0.00,1004.95"/>
        <lane id="edge-4-3_1" index="1" speed="15.00" length="991.95" shape="991.95,1001.65 0.00,1001.65"/>
    </edge>
    <edge id="edge-4-5" from="node4" to="node5" priority="75">
        <lane id="edge-4-5_0" index="0" speed="15.00" length="983.90" shape="1008.05,995.05 1991.95,995.05"/>
        <lane id="edge-4-5_1" index="1" speed="15.00" length="983.90" shape="1008.05,998.35 1991.95,998.35"/>
    </edge>
    <edge id="edge-4-8" from="node4" to="node8" priority="75">
        <lane id="edge-4-8_0" index="0" speed="15.00" length="983.90" shape="1004.95,1008.05 1004.95,1991.95"/>
        <lane id="edge-4-8_1" index="1" speed="15.00" length="983.90" shape="1001.65,1008.05 1001.65,1991.95"/>
    </edge>
    <edge id="edge-5-2" from="node5" to="node2" priority="75">
        <lane id="edge-5-2_0" index="0" speed="15.00" length="991.95" shape="1995.05,991.95 1995.05,0.00"/>
        <lane id="edge-5-2_1" index="1" speed="15.00" length="991.95" shape="1998.35,991.95 1998.35,0.00"/>
    </edge>
    <edge id="edge-5-4" from="node5" to="node4" priority="75">
        <lane id="edge-5-4_0" index="0" speed="15.00" length="983.90" shape="1991.95,1004.95 1008.05,1004.95"/>
        <lane id="edge-5-4_1" index="1" speed="15.00" length="983.90" shape="1991.95,1001.65 1008.05,1001.65"/>
    </edge>
    <edge id="edge-5-6" from="node5" to="node6" priority="75">
        <lane id="edge-5-6_0" index="0" speed="15.00" length="991.95" shape="2008.05,995.05 3000.00,995.05"/>
        <lane id="edge-5-6_1" index="1" speed="15.00" length="991.95" shape="2008.05,998.35 3000.00,998.35"/>
    </edge>
    <edge id="edge-5-9" from="node5" to="node9" priority="75">
        <lane id="edge-5-9_0" index="0" speed="15.00" length="983.90" shape="2004.95,1008.05 2004.95,1991.95"/>
        <lane id="edge-5-9_1" index="1" speed="15.00" length="983.90" shape="2001.65,1008.05 2001.65,1991.95"/>
    </edge>
    <edge id="edge-6-5" from="node6" to="node5" priority="75">
        <lane id="edge-6-5_0" index="0" speed="15.00" length="991.95" shape="3000.00,1004.95 2008.05,1004.95"/>
        <lane id="edge-6-5_1" index="1" speed="15.00" length="991.95" shape="3000.00,1001.65 2008.05,1001.65"/>
    </edge>
    <edge id="edge-7-8" from="node7" to="node8" priority="75">
        <lane id="edge-7-8_0" index="0" speed="15.00" length="991.95" shape="0.00,1995.05 991.95,1995.05"/>
        <lane id="edge-7-8_1" index="1" speed="15.00" length="991.95" shape="0.00,1998.35 991.95,1998.35"/>
    </edge>
    <edge id="edge-8-11" from="node8" to="node11" priority="75">
        <lane id="edge-8-11_0" index="0" speed="15.00" length="991.95" shape="1004.95,2008.05 1004.95,3000.00"/>
        <lane id="edge-8-11_1" index="1" speed="15.00" length="991.95" shape="1001.65,2008.05 1001.65,3000.00"/>
    </edge>
    <edge id="edge-8-4" from="node8" to="node4" priority="75">
        <lane id="edge-8-4_0" index="0" speed="15.00" length="983.90" shape="995.05,1991.95 995.05,1008.05"/>
        <lane id="edge-8-4_1" index="1" speed="15.00" length="983.90" shape="998.35,1991.95 998.35,1008.05"/>
    </edge>
    <edge id="edge-8-7" from="node8" to="node7" priority="75">
        <lane id="edge-8-7_0" index="0" speed="15.00" length="991.95" shape="991.95,2004.95 0.00,2004.95"/>
        <lane id="edge-8-7_1" index="1" speed="15.00" length="991.95" shape="991.95,2001.65 0.00,2001.65"/>
    </edge>
    <edge id="edge-8-9" from="node8" to="node9" priority="75">
        <lane id="edge-8-9_0" index="0" speed="15.00" length="983.90" shape="1008.05,1995.05 1991.95,1995.05"/>
        <lane id="edge-8-9_1" index="1" speed="15.00" length="983.90" shape="1008.05,1998.35 1991.95,1998.35"/>
    </edge>
    <edge id="edge-9-10" from="node9" to="node10" priority="75">
        <lane id="edge-9-10_0" index="0" speed="15.00" length="991.95" shape="2008.05,1995.05 3000.00,1995.05"/>
        <lane id="edge-9-10_1" index="1" speed="15.00" length="991.95" shape="2008.05,1998.35 3000.00,1998.35"/>
    </edge>
    <edge id="edge-9-12" from="node9" to="node12" priority="75">
        <lane id="edge-9-12_0" index="0" speed="15.00" length="991.95" shape="2004.95,2008.05 2004.95,3000.00"/>
        <lane id="edge-9-12_1" index="1" speed="15.00" length="991.95" shape="2001.65,2008.05 2001.65,3000.00"/>
    </edge>
    <edge id="edge-9-5" from="node9" to="node5" priority="75">
        <lane id="edge-9-5_0" index="0" speed="15.00" length="983.90" shape="1995.05,1991.95 1995.05,1008.05"/>
        <lane id="edge-9-5_1" index="1" speed="15.00" length="983.90" shape="1998.35,1991.95 1998.35,1008.05"/>
    </edge>
    <edge id="edge-9-8" from="node9" to="node8" priority="75">
        <lane id="edge-9-8_0" index="0" speed="15.00" length="983.90" shape="1991.95,2004.95 1008.05,2004.95"/>
        <lane id="edge-9-8_1" index="1" speed="15.00" length="983.90" shape="1991.95,2001.65 1008.05,2001.65"/>
    </edge>

    <junction id="node1" type="priority" x="1000.00" y="0.00" incLanes="edge-4-1_0 edge-4-1_1" intLanes=":node1_0_0" shape="1000.05,-0.00 1006.55,-0.00 993.45,0.00 999.95,0.00">
        <request index="0" response="0" foes="0" cont="0"/>
    </junction>
    <junction id="node10" type="priority" x="3000.00" y="2000.00" incLanes="edge-9-10_0 edge-9-10_1" intLanes=":node10_0_0" shape="3000.00,2000.05 3000.00,2006.55 3000.00,1993.45 3000.00,1999.95">
        <request index="0" response="0" foes="0" cont="0"/>
    </junction>
    <junction id="node11" type="priority" x="1000.00" y="3000.00" incLanes="edge-8-11_0 edge-8-11_1" intLanes=":node11_0_0" shape="999.95,3000.00 993.45,3000.00 1006.55,3000.00 1000.05,3000.00">
        <request index="0" response="0" foes="0" cont="0"/>
    </junction>
    <junction id="node12" type="priority" x="2000.00" y="3000.00" incLanes="edge-9-12_0 edge-9-12_1" intLanes=":node12_0_0" shape="1999.95,3000.00 1993.45,3000.00 2006.55,3000.00 2000.05,3000.00">
        <request index="0" response="0" foes="0" cont="0"/>
    </junction>
    <junction id="node2" type="priority" x="2000.00" y="0.00" incLanes="edge-5-2_0 edge-5-2_1" intLanes=":node2_0_0" shape="2000.05,-0.00 2006.55,-0.00 1993.45,0.00 1999.95,0.00">
        <request index="0" response="0" foes="0" cont="0"/>
    </junction>
    <junction id="node3" type="priority" x="0.00" y="1000.00" incLanes="edge-4-3_0 edge-4-3_1" intLanes=":node3_0_0" shape="-0.00,999.95 -0.00,993.45 0.00,1006.55 0.00,1000.05">
        <request index="0" response="0" foes="0" cont="0"/>
    </junction>
    <junction id="node4" type="priority" x="1000.00" y="1000.00" incLanes="edge-8-4_0 edge-8-4_1 edge-5-4_0 edge-5-4_1 edge-1-4_0 edge-1-4_1 edge-3-4_0 edge-3-4_1" intLanes=":node4_0_0 :node4_1_0 :node4_1_1 :node4_13_0 :node4_14_0 :node4_5_0 :node4_6_0 :node4_7_0 :node4_8_0 :node4_9_0 :node4_9_1 :node4_11_0 :node4_11_1" shape="993.45,1008.05 1006.55,1008.05 1008.05,1006.55 1008.05,993.45 1006.55,991.95 993.45,991.95 991.95,993.45 991.95,1006.55">
        <request index="0" response="0000000000000" foes="0000000000000" cont="0"/>
        <request index="1" response="0000000000000" foes="1100011000000" cont="0"/>
        <request index="2" response="0000000000000" foes="1100011000000" cont="0"/>
        <request index="3" response="0011000000000" foes="1111111000000" cont="1"/>
        <request index="4" response="0011000100000" foes="0011000100000" cont="1"/>
        <request index="5" response="0011000000000" foes="0011000010000" cont="0"/>
        <request index="6" response="0011000001110" foes="0011000001110" cont="0"/>
        <request index="7" response="1111000001110" foes="1111000001110" cont="0"/>
        <request index="8" response="1100000001000" foes="1100000001000" cont="0"/>
        <request index="9" response="0000000000000" foes="1100011111000" cont="0"/>
        <request index="10" response="0000000000000" foes="1100011111000" cont="0"/>
        <request index="11" response="0011000001110" foes="0011110001110" cont="0"/>
        <request index="12" response="0011000001110" foes="0011110001110" cont="0"/>
    </junction>
    <junction id="node5" type="priority" x="2000.00" y="1000.00" incLanes="edge-9-5_0 edge-9-5_1 edge-6-5_0 edge-6-5_1 edge-2-5_0 edge-2-5_1 edge-4-5_0 edge-4-5_1" intLanes=":node5_0_0 :node5_1_0 :node5_1_1 :node5_13_0 :node5_14_0 :node5_5_0 :node5_5_1 :node5_7_0 :node5_7_1 :node5_9_0 :node5_10_0 :node5_11_0 :node5_12_0" shape="1993.45,1008.05 2006.55,1008.05 2008.05,1006.55 2008.05,993.45 2006.55,991.95 1993.45,991.95 1991.95,993.45 1991.95,1006.55">
        <request index="0" response="0000000000000" foes="1000001100000" cont="0"/>
        <request index="1" response="0000000000000" foes="0111001100000" cont="0"/>
        <request index="2" response="0000000000000" foes="0111001100000" cont="0"/>
        <request index="3" response="0000110000000" foes="0100111100000" cont="1"/>
        <request index="4" response="0100110000000" foes="0100110000000" cont="1"/>
        <request index="5" response="0000110001111" foes="1100110001111" cont="0"/>
        <request index="6" response="0000110001111" foes="1100110001111" cont="0"/>
        <request index="7" response="0000000000000" foes="0110001111000" cont="0"/>
        <request index="8" response="0000000000000" foes="0110001111000" cont="0"/>
        <request index="9" response="0000000000110" foes="0000000000110" cont="0"/>
        <request index="10" response="0000110000110" foes="0000110000110" cont="0"/>
        <request index="11" response="0000111101110" foes="0000111111110" cont="0"/>
        <request index="12" response="0000001100001" foes="0000001100001" cont="0"/>
    </junction>
    <junction id="node6" type="priority" x="3000.00" y="1000.00" incLanes="edge-5-6_0 edge-5-6_1" intLanes=":node6_0_0" shape="3000.00,1000.05 3000.00,1006.55 3000.00,993.45 3000.00,999.95">
        <request index="0" response="0" foes="0" cont="0"/>
    </junction>
    <junction id="node7" type="priority" x="0.00" y="2000.00" incLanes="edge-8-7_0 edge-8-7_1" intLanes=":node7_0_0" shape="-0.00,1999.95 -0.00,1993.45 0.00,2006.55 0.00,2000.05">
        <request index="0" response="0" foes="0" cont="0"/>
    </junction>
    <junction id="node8" type="priority" x="1000.00" y="2000.00" incLanes="edge-11-8_0 edge-11-8_1 edge-9-8_0 edge-9-8_1 edge-4-8_0 edge-4-8_1 edge-7-8_0 edge-7-8_1" intLanes=":node8_0_0 :node8_0_1 :node8_2_0 :node8_3_0 :node8_4_0 :node8_5_0 :node8_6_0 :node8_7_0 :node8_7_1 :node8_13_0 :node8_14_0 :node8_11_0 :node8_11_1" shape="993.45,2008.05 1006.55,2008.05 1008.05,2006.55 1008.05,1993.45 1006.55,1991.95 993.45,1991.95 991.95,1993.45 991.95,2006.55">
        <request index="0" response="0000000000000" foes="1111000011000" cont="0"/>
        <request index="1" response="0000000000000" foes="1111000011000" cont="0"/>
        <request index="2" response="0000110000000" foes="0000110000000" cont="0"/>
        <request index="3" response="0000110000011" foes="0000110000011" cont="0"/>
        <request index="4" response="1101110000011" foes="1111110000011" cont="0"/>
        <request index="5" response="1100001000000" foes="1100001000000" cont="0"/>
        <request index="6" response="0000000000000" foes="1100000100000" cont="0"/>
        <request index="7" response="0000000000000" foes="1100000011100" cont="0"/>
        <request index="8" response="0000000000000" foes="1100000011100" cont="0"/>
        <request index="9" response="0000000000011" foes="1100000010011" cont="1"/>
        <request index="10" response="0000000010011" foes="0000000010011" cont="1"/>
        <request index="11" response="0001111000011" foes="0001111110011" cont="0"/>
        <request index="12" response="0001111000011" foes="0001111110011" cont="0"/>
    </junction>
    <junction id="node9" type="priority" x="2000.00" y="2000.00" incLanes="edge-12-9_0 edge-12-9_1 edge-10-9_0 edge-10-9_1 edge-5-9_0 edge-5-9_1 edge-8-9_0 edge-8-9_1" intLanes=":node9_0_0 :node9_0_1 :node9_2_0 :node9_2_1 :node9_4_0 :node9_5_0 :node9_5_1 :node9_13_0 :node9_14_0 :node9_9_0 :node9_10_0 :node9_11_0 :node9_12_0" shape="1993.45,2008.05 2006.55,2008.05 2008.05,2006.55 2008.05,1993.45 2006.55,1991.95 1993.45,1991.95 1991.95,1993.45 1991.95,2006.55">
        <request index="0" response="0000000000000" foes="0111110001100" cont="0"/>
        <request index="1" response="0000000000000" foes="0111110001100" cont="0"/>
        <request index="2" response="0000011100011" foes="1100011100011" cont="0"/>
        <request index="3" response="0000011100011" foes="1100011100011" cont="0"/>
        <request index="4" response="0000000000000" foes="0000000000000" cont="0"/>
        <request index="5" response="0000000000000" foes="0110000001100" cont="0"/>
        <request index="6" response="0000000000000" foes="0110000001100" cont="0"/>
        <request index="7" response="0000000000011" foes="1110000001111" cont="1"/>
        <request index="8" response="0001000000011" foes="0001000000011" cont="1"/>
        <request index="9" response="0000000000011" foes="0000100000011" cont="0"/>
        <request index="10" response="0000011100011" foes="0000011100011" cont="0"/>
        <request index="11" response="0000011101111" foes="0000011101111" cont="0"/>
        <request index="12" response="0000010001100" foes="0000010001100" cont="0"/>
    </junction>

    <junction id=":node4_13_0" type="internal" x="1001.65" y="1000.25" incLanes=":node4_3_0 edge-1-4_0 edge-1-4_1" intLanes=":node4_6_0 :node4_7_0 :node4_8_0 :node4_9_0 :node4_9_1 :node4_11_0 :node4_11_1"/>