<?xml version="1.0" encoding="UTF-8"?>

<!-- generated on 03/12/17 22:09:40 by SUMO netgenerate Version 0.26.0
<?xml version="1.0" encoding="UTF-8"?>

<configuration xmlns:xsi="http://www.w3.org/2001/XMLSchema-instance" xsi:noNamespaceSchemaLocation="http://sumo.dlr.de/xsd/netgenerateConfiguration.xsd">

    <grid_network>
        <grid value="true"/>
        <grid.number value="4"/>
        <grid.length value="1000"/>
    </grid_network>

    <output>
        <output-file value="output/input_net.net.xml"/>
    </output>

    <processing>
        <no-internal-links value="true"/>
    </processing>

    <building_defaults>
        <default.lanenumber value="2"/>
        <default.speed value="20"/>
    </building_defaults>

</configuration>
-->

<net version="0.25" xmlns:xsi="http://www.w3.org/2001/XMLSchema-instance" xsi:noNamespaceSchemaLocation="http://sumo.dlr.de/xsd/net_file.xsd">

    <location netOffset="0.00,0.00" convBoundary="0.00,0.00,3000.00,3000.00" origBoundary="0.00,0.00,3000.00,3000.00" projParameter="!"/>

    <edge id="0/0to0/1" from="0/0" to="0/1" priority="-1">
        <lane id="0/0to0/1_0" index="0" speed="20.00" length="1000.00" shape="4.95,6.55 4.95,991.95"/>
        <lane id="0/0to0/1_1" index="1" speed="20.00" length="1000.00" shape="1.65,6.55 1.65,991.95"/>
    </edge>
    <edge id="0/0to1/0" from="0/0" to="1/0" priority="-1">
        <lane id="0/0to1/0_0" index="0" speed="20.00" length="1000.00" shape="6.55,-4.95 991.95,-4.95"/>
        <lane id="0/0to1/0_1" index="1" speed="20.00" length="1000.00" shape="6.55,-1.65 991.95,-1.65"/>
    </edge>
    <edge id="0/1to0/0" from="0/1" to="0/0" priority="-1">
        <lane id="0/1to0/0_0" index="0" speed="20.00" length="1000.00" shape="-4.95,991.95 -4.95,6.55"/>
        <lane id="0/1to0/0_1" index="1" speed="20.00" length="1000.00" shape="-1.65,991.95 -1.65,6.55"/>
    </edge>
    <edge id="0/1to0/2" from="0/1" to="0/2" priority="-1">
        <lane id="0/1to0/2_0" index="0" speed="20.00" length="1000.00" shape="4.95,1008.05 4.95,1991.95"/>
        <lane id="0/1to0/2_1" index="1" speed="20.00" length="1000.00" shape="1.65,1008.05 1.65,1991.95"/>
    </edge>
    <edge id="0/1to1/1" from="0/1" to="1/1" priority="-1">
        <lane id="0/1to1/1_0" index="0" speed="20.00" length="1000.00" shape="8.05,995.05 991.95,995.05"/>
        <lane id="0/1to1/1_1" index="1" speed="20.00" length="1000.00" shape="8.05,998.35 991.95,998.35"/>
    </edge>
    <edge id="0/2to0/1" from="0/2" to="0/1" priority="-1">
        <lane id="0/2to0/1_0" index="0" speed="20.00" length="1000.00" shape="-4.95,1991.95 -4.95,1008.05"/>
        <lane id="0/2to0/1_1" index="1" speed="20.00" length="1000.00" shape="-1.65,1991.95 -1.65,1008.05"/>
    </edge>
    <edge id="0/2to0/3" from="0/2" to="0/3" priority="-1">
        <lane id="0/2to0/3_0" index="0" speed="20.00" length="1000.00" shape="4.95,2008.05 4.95,2993.45"/>
        <lane id="0/2to0/3_1" index="1" speed="20.00" length="1000.00" shape="1.65,2008.05 1.65,2993.45"/>
    </edge>
    <edge id="0/2to1/2" from="0/2" to="1/2" priority="-1">
        <lane id="0/2to1/2_0" index="0" speed="20.00" length="1000.00" shape="8.05,1995.05 991.95,1995.05"/>
        <lane id="0/2to1/2_1" index="1" speed="20.00" length="1000.00" shape="8.05,1998.35 991.95,1998.35"/>
    </edge>
    <edge id="0/3to0/2" from="0/3" to="0/2" priority="-1">
        <lane id="0/3to0/2_0" index="0" speed="20.00" length="1000.00" shape="-4.95,2993.45 -4.95,2008.05"/>
        <lane id="0/3to0/2_1" index="1" speed="20.00" length="1000.00" shape="-1.65,2993.45 -1.65,2008.05"/>
    </edge>
    <edge id="0/3to1/3" from="0/3" to="1/3" priority="-1">
        <lane id="0/3to1/3_0" index="0" speed="20.00" length="1000.00" shape="6.55,2995.05 991.95,2995.05"/>
        <lane id="0/3to1/3_1" index="1" speed="20.00" length="1000.00" shape="6.55,2998.35 991.95,2998.35"/>
    </edge>
    <edge id="1/0to0/0" from="1/0" to="0/0" priority="-1">
        <lane id="1/0to0/0_0" index="0" speed="20.00" length="1000.00" shape="991.95,4.95 6.55,4.95"/>
        <lane id="1/0to0/0_1" index="1" speed="20.00" length="1000.00" shape="991.95,1.65 6.55,1.65"/>
    </edge>
    <edge id="1/0to1/1" from="1/0" to="1/1" priority="-1">
        <lane id="1/0to1/1_0" index="0" speed="20.00" length="1000.00" shape="1004.95,8.05 1004.95,991.95"/>
        <lane id="1/0to1/1_1" index="1" speed="20.00" length="1000.00" shape="1001.65,8.05 1001.65,991.95"/>
    </edge>
    <edge id="1/0to2/0" from="1/0" to="2/0" priority="-1">
        <lane id="1/0to2/0_0" index="0" speed="20.00" length="1000.00" shape="1008.05,-4.95 1991.95,-4.95"/>
        <lane id="1/0to2/0_1" index="1" speed="20.00" length="1000.00" shape="1008.05,-1.65 1991.95,-1.65"/>
    </edge>
    <edge id="1/1to0/1" from="1/1" to="0/1" priority="-1">
        <lane id="1/1to0/1_0" index="0" speed="20.00" length="1000.00" shape="991.95,1004.95 8.05,1004.95"/>
        <lane id="1/1to0/1_1" index="1" speed="20.00" length="1000.00" shape="991.95,1001.65 8.05,1001.65"/>
    </edge>
    <edge id="1/1to1/0" from="1/1" to="1/0" priority="-1">
        <lane id="1/1to1/0_0" index="0" speed="20.00" length="1000.00" shape="995.05,991.95 995.05,8.05"/>
        <lane id="1/1to1/0_1" index="1" speed="20.00" length="1000.00" shape="998.35,991.95 998.35,8.05"/>
    </edge>
    <edge id="1/1to1/2" from="1/1" to="1/2" priority="-1">
        <lane id="1/1to1/2_0" index="0" speed="20.00" length="1000.00" shape="1004.95,1008.05 1004.95,1991.95"/>
        <lane id="1/1to1/2_1" index="1" speed="20.00" length="1000.00" shape="1001.65,1008.05 1001.65,1991.95"/>
    </edge>
    <edge id="1/1to2/1" from="1/1" to="2/1" priority="-1">
        <lane id="1/1to2/1_0" index="0" speed="20.00" length="1000.00" shape="1008.05,995.05 1991.95,995.05"/>
        <lane id="1/1to2/1_1" index="1" speed="20.00" length="1000.00" shape="1008.05,998.35 1991.95,998.35"/>
    </edge>
    <edge id="1/2to0/2" from="1/2" to="0/2" priority="-1">
        <lane id="1/2to0/2_0" index="0" speed="20.00" length="1000.00" shape="991.95,2004.95 8.05,2004.95"/>
        <lane id="1/2to0/2_1" index="1" speed="20.00" length="1000.00" shape="991.95,2001.65 8.05,2001.65"/>
    </edge>
    <edge id="1/2to1/1" from="1/2" to="1/1" priority="-1">
        <lane id="1/2to1/1_0" index="0" speed="20.00" length="1000.00" shape="995.05,1991.95 995.05,1008.05"/>
        <lane id="1/2to1/1_1" index="1" speed="20.00" length="1000.00" shape="998.35,1991.95 998.35,1008.05"/>
    </edge>
    <edge id="1/2to1/3" from="1/2" to="1/3" priority="-1">
        <lane id="1/2to1/3_0" index="0" speed="20.00" length="1000.00" shape="1004.95,2008.05 1004.95,2991.95"/>
        <lane id="1/2to1/3_1" index="1" speed="20.00" length="1000.00" shape="1001.65,2008.05 1001.65,2991.95"/>
    </edge>
    <edge id="1/2to2/2" from="1/2" to="2/2" priority="-1">
        <lane id="1/2to2/2_0" index="0" speed="20.00" length="1000.00" shape="1008.05,1995.05 1991.95,1995.05"/>
        <lane id="1/2to2/2_1" index="1" speed="20.00" length="1000.00" shape="1008.05,1998.35 1991.95,1998.35"/>
    </edge>
    <edge id="1/3to0/3" from="1/3" to="0/3" priority="-1">
        <lane id="1/3to0/3_0" index="0" speed="20.00" length="1000.00" shape="991.95,3004.95 6.55,3004.95"/>
        <lane id="1/3to0/3_1" index="1" speed="20.00" length="1000.00" shape="991.95,3001.65 6.55,3001.65"/>
    </edge>
    <edge id="1/3to1/2" from="1/3" to="1/2" priority="-1">
        <lane id="1/3to1/2_0" index="0" speed="20.00" length="1000.00" shape="995.05,2991.95 995.05,2008.05"/>
        <lane id="1/3to1/2_1" index="1" speed="20.00" length="1000.00" shape="998.35,2991.95 998.35,2008.05"/>
    </edge>
    <edge id="1/3to2/3" from="1/3" to="2/3" priority="-1">
        <lane id="1/3to2/3_0" index="0" speed="20.00" length="1000.00" shape="1008.05,2995.05 1991.95,2995.05"/>
        <lane id="1/3to2/3_1" index="1" speed="20.00" length="1000.00" shape="1008.05,2998.35 1991.95,2998.35"/>
    </edge>
    <edge id="2/0to1/0" from="2/0" to="1/0" priority="-1">
        <lane id="2/0to1/0_0" index="0" speed="20.00" length="1000.00" shape="1991.95,4.95 1008.05,4.95"/>
        <lane id="2/0to1/0_1" index="1" speed="20.00" length="1000.00" shape="1991.95,1.65 1008.05,1.65"/>
    </edge>
    <edge id="2/0to2/1" from="2/0" to="2/1" priority="-1">
        <lane id="2/0to2/1_0" index="0" speed="20.00" length="1000.00" shape="2004.95,8.05 2004.95,991.95"/>
        <lane id="2/0to2/1_1" index="1" speed="20.00" length="1000.00" shape="2001.65,8.05 2001.65,991.95"/>
    </edge>
    <edge id="2/0to3/0" from="2/0" to="3/0" priority="-1">
        <lane id="2/0to3/0_0" index="0" speed="20.00" length="1000.00" shape="2008.05,-4.95 2993.45,-4.95"/>
        <lane id="2/0to3/0_1" index="1" speed="20.00" length="1000.00" shape="2008.05,-1.65 2993.45,-1.65"/>
    </edge>
    <edge id="2/1to1/1" from="2/1" to="1/1" priority="-1">
        <lane id="2/1to1/1_0" index="0" speed="20.00" length="1000.00" shape="1991.95,1004.95 1008.05,1004.95"/>
        <lane id="2/1to1/1_1" index="1" speed="20.00" length="1000.00" shape="1991.95,1001.65 1008.05,1001.65"/>
    </edge>
    <edge id="2/1to2/0" from="2/1" to="2/0" priority="-1">
        <lane id="2/1to2/0_0" index="0" speed="20.00" length="1000.00" shape="1995.05,991.95 1995.05,8.05"/>
        <lane id="2/1to2/0_1" index="1" speed="20.00" length="1000.00" shape="1998.35,991.95 1998.35,8.05"/>
    </edge>
    <edge id="2/1to2/2" from="2/1" to="2/2" priority="-1">
        <lane id="2/1to2/2_0" index="0" speed="20.00" length="1000.00" shape="2004.95,1008.05 2004.95,1991.95"/>
        <lane id="2/1to2/2_1" index="1" speed="20.00" length="1000.00" shape="2001.65,1008.05 2001.65,1991.95"/>
    </edge>
    <edge id="2/1to3/1" from="2/1" to="3/1" priority="-1">
        <lane id="2/1to3/1_0" index="0" speed="20.00" length="1000.00" shape="2008.05,995.05 2991.95,995.05"/>
        <lane id="2/1to3/1_1" index="1" speed="20.00" length="1000.00" shape="2008.05,998.35 2991.95,998.35"/>
    </edge>
    <edge id="2/2to1/2" from="2/2" to="1/2" priority="-1">
        <lane id="2/2to1/2_0" index="0" speed="20.00" length="1000.00" shape="1991.95,2004.95 1008.05,2004.95"/>
        <lane id="2/2to1/2_1" index="1" speed="20.00" length="1000.00" shape="1991.95,2001.65 1008.05,2001.65"/>
    </edge>
    <edge id="2/2to2/1" from="2/2" to="2/1" priority="-1">
        <lane id="2/2to2/1_0" index="0" speed="20.00" length="1000.00" shape="1995.05,1991.95 1995.05,1008.05"/>
        <lane id="2/2to2/1_1" index="1" speed="20.00" length="1000.00" shape="1998.35,1991.95 1998.35,1008.05"/>
    </edge>
    <edge id="2/2to2/3" from="2/2" to="2/3" priority="-1">
        <lane id="2/2to2/3_0" index="0" speed="20.00" length="1000.00" shape="2004.95,2008.05 2004.95,2991.95"/>
        <lane id="2/2to2/3_1" index="1" speed="20.00" length="1000.00" shape="2001.65,2008.05 2001.65,2991.95"/>
    </edge>
    <edge id="2/2to3/2" from="2/2" to="3/2" priority="-1">
        <lane id="2/2to3/2_0" index="0" speed="20.00" length="1000.00" shape="2008.05,1995.05 2991.95,1995.05"/>
        <lane id="2/2to3/2_1" index="1" speed="20.00" length="1000.00" shape="2008.05,1998.35 2991.95,1998.35"/>
    </edge>
    <edge id="2/3to1/3" from="2/3" to="1/3" priority="-1">
        <lane id="2/3to1/3_0" index="0" speed="20.00" length="1000.00" shape="1991.95,3004.95 1008.05,3004.95"/>
        <lane id="2/3to1/3_1" index="1" speed="20.00" length="1000.00" shape="1991.95,3001.65 1008.05,3001.65"/>
    </edge>
    <edge id="2/3to2/2" from="2/3" to="2/2" priority="-1">
        <lane id="2/3to2/2_0" index="0" speed="20.00" length="1000.00" shape="1995.05,2991.95 1995.05,2008.05"/>
        <lane id="2/3to2/2_1" index="1" speed="20.00" length="1000.00" shape="1998.35,2991.95 1998.35,2008.05"/>
    </edge>
    <edge id="2/3to3/3" from="2/3" to="3/3" priority="-1">
        <lane id="2/3to3/3_0" index="0" speed="20.00" length="1000.00" shape="2008.05,2995.05 2993.45,2995.05"/>
        <lane id="2/3to3/3_1" index="1" speed="20.00" length="1000.00" shape="2008.05,2998.35 2993.45,2998.35"/>
    </edge>
    <edge id="3/0to2/0" from="3/0" to="2/0" priority="-1">
        <lane id="3/0to2/0_0" index="0" speed="20.00" length="1000.00" shape="2993.45,4.95 2008.05,4.95"/>
        <lane id="3/0to2/0_1" index="1" speed="20.00" length="1000.00" shape="2993.45,1.65 2008.05,1.65"/>
    </edge>
    <edge id="3/0to3/1" from="3/0" to="3/1" priority="-1">
        <lane id="3/0to3/1_0" index="0" speed="20.00" length="1000.00" shape="3004.95,6.55 3004.95,991.95"/>
        <lane id="3/0to3/1_1" index="1" speed="20.00" length="1000.00" shape="3001.65,6.55 3001.65,991.95"/>
    </edge>
    <edge id="3/1to2/1" from="3/1" to="2/1" priority="-1">
        <lane id="3/1to2/1_0" index="0" speed="20.00" length="1000.00" shape="2991.95,1004.95 2008.05,1004.95"/>
        <lane id="3/1to2/1_1" index="1" speed="20.00" length="1000.00" shape="2991.95,1001.65 2008.05,1001.65"/>
    </edge>
    <edge id="3/1to3/0" from="3/1" to="3/0" priority="-1">
        <lane id="3/1to3/0_0" index="0" speed="20.00" length="1000.00" shape="2995.05,991.95 2995.05,6.55"/>
        <lane id="3/1to3/0_1" index="1" speed="20.00" length="1000.00" shape="2998.35,991.95 2998.35,6.55"/>
    </edge>
    <edge id="3/1to3/2" from="3/1" to="3/2" priority="-1">
        <lane id="3/1to3/2_0" index="0" speed="20.00" length="1000.00" shape="3004.95,1008.05 3004.95,1991.95"/>
        <lane id="3/1to3/2_1" index="1" speed="20.00" length="1000.00" shape="3001.65,1008.05 3001.65,1991.95"/>
    </edge>
    <edge id="3/2to2/2" from="3/2" to="2/2" priority="-1">
        <lane id="3/2to2/2_0" index="0" speed="20.00" length="1000.00" shape="2991.95,2004.95 2008.05,2004.95"/>
        <lane id="3/2to2/2_1" index="1" speed="20.00" length="1000.00" shape="2991.95,2001.65 2008.05,2001.65"/>
    </edge>
    <edge id="3/2to3/1" from="3/2" to="3/1" priority="-1">
        <lane id="3/2to3/1_0" index="0" speed="20.00" length="1000.00" shape="2995.05,1991.95 2995.05,1008.05"/>
        <lane id="3/2to3/1_1" index="1" speed="20.00" length="1000.00" shape="2998.35,1991.95 2998.35,1008.05"/>
    </edge>
    <edge id="3/2to3/3" from="3/2" to="3/3" priority="-1">
        <lane id="3/2to3/3_0" index="0" speed="20.00" length="1000.00" shape="3004.95,2008.05 3004.95,2993.45"/>
        <lane id="3/2to3/3_1" index="1" speed="20.00" length="1000.00" shape="3001.65,2008.05 3001.65,2993.45"/>
    </edge>
    <edge id="3/3to2/3" from="3/3" to="2/3" priority="-1">
        <lane id="3/3to2/3_0" index="0" speed="20.00" length="1000.00" shape="2993.45,3004.95 2008.05,3004.95"/>
        <lane id="3/3to2/3_1" index="1" speed="20.00" length="1000.00" shape="2993.45,3001.65 2008.05,3001.65"/>
    </edge>
    <edge id="3/3to3/2" from="3/3" to="3/2" priority="-1">
        <lane id="3/3to3/2_0" index="0" speed="20.00" length="1000.00" shape="2995.05,2993.45 2995.05,2008.05"/>
        <lane id="3/3to3/2_1" index="1" speed="20.00" length="1000.00" shape="2998.35,2993.45 2998.35,2008.05"/>
    </edge>

    <junction id="0/0" type="priority" x="0.00" y="0.00" incLanes="0/1to0/0_0 0/1to0/0_1 1/0to0/0_0 1/0to0/0_1" intLanes="" shape="-6.55,6.55 6.55,6.55 6.55,-6.55">
        <request index="0" response="000000" foes="100000"/>
        <request index="1" response="000000" foes="100000"/>
        <request index="2" response="011000" foes="011000"/>
        <request index="3" response="000000" foes="000100"/>
        <request index="4" response="000000" foes="000100"/>
        <request index="5" response="000011" foes="000011"/>
    </junction>
    <junction id="0/1" type="priority" x="0.00" y="1000.00" incLanes="0/2to0/1_0 0/2to0/1_1 1/1to0/1_0 1/1to0/1_1 0/0to0/1_0 0/0to0/1_1" intLanes="" shape="-6.55,1008.05 6.55,1008.05 8.05,1006.55 8.05,993.45 6.55,991.95 -6.55,991.95">
        <request index="0" response="00000000000" foes="10000100000"/>
        <request index="1" response="00000000000" foes="10000100000"/>
        <request index="2" response="01110000000" foes="01111100000"/>
        <request index="3" response="01100010000" foes="01100010000"/>
        <request index="4" response="01100000000" foes="01100001000"/>
        <request index="5" response="01100000111" foes="11100000111"/>
        <request index="6" response="00010000100" foes="00010000100"/>
        <request index="7" response="00000000000" foes="00001000100"/>
        <request index="8" response="00000000000" foes="00000111100"/>
        <request index="9" response="00000000000" foes="00000111100"/>
        <request index="10" response="00000100011" foes="00000100011"/>
    </junction>
    <junction id="0/2" type="priority" x="0.00" y="2000.00" incLanes="0/3to0/2_0 0/3to0/2_1 1/2to0/2_0 1/2to0/2_1 0/1to0/2_0 0/1to0/2_1" intLanes="" shape="-6.55,2008.05 6.55,2008.05 8.05,2006.55 8.05,1993.45 6.55,1991.95 -6.55,1991.95">
        <request index="0" response="00000000000" foes="10000100000"/>
        <request index="1" response="00000000000" foes="10000100000"/>
        <request index="2" response="01110000000" foes="01111100000"/>
        <request index="3" response="01100010000" foes="01100010000"/>
        <request index="4" response="01100000000" foes="01100001000"/>
        <request index="5" response="01100000111" foes="11100000111"/>
        <request index="6" response="00010000100" foes="00010000100"/>
        <request index="7" response="00000000000" foes="00001000100"/>
        <request index="8" response="00000000000" foes="00000111100"/>
        <request index="9" response="00000000000" foes="00000111100"/>
        <request index="10" response="00000100011" foes="00000100011"/>
    </junction>
    <junction id="0/3" type="priority" x="0.00" y="3000.00" incLanes="1/3to0/3_0 1/3to0/3_1 0/2to0/3_0 0/2to0/3_1" intLanes="" shape="6.55,3006.55 6.55,2993.45 -6.55,2993.45">
        <request index="0" response="000000" foes="100000"/>
        <request index="1" response="000000" foes="100000"/>
        <request index="2" response="011000" foes="011000"/>
        <request index="3" response="000000" foes="000100"/>
        <request index="4" response="000000" foes="000100"/>
        <request index="5" response="000011" foes="000011"/>
    </junction>
    <junction id="1/0" type="priority" x="1000.00" y="0.00" incLanes="1/1to1/0_0 1/1to1/0_1 2/0to1/0_0 2/0to1/0_1 0/0to1/0_0 0/0to1/0_1" intLanes="" shape="993.45,8.05 1006.55,8.05 1008.05,6.55 1008.05,-6.55 991.95,-6.55 991.95,6.55">
        <request index="0" response="00000110000" foes="10000110000"/>
        <request index="1" response="01110110000" foes="01111110000"/>
        <request index="2" response="01000001000" foes="01000001000"/>
        <request index="3" response="00000000000" foes="01000000100"/>
        <request index="4" response="00000000000" foes="11000000011"/>
        <request index="5" response="00000000000" foes="11000000011"/>
        <request index="6" response="00110000010" foes="00110000010"/>
        <request index="7" response="00000000000" foes="00001000010"/>
        <request index="8" response="00000000000" foes="00001000010"/>
        <request index="9" response="00000111000" foes="00000111110"/>
        <request index="10" response="00000110001" foes="00000110001"/>
    </junction>
    <junction id="1/1" type="priority" x="1000.00" y="1000.00" incLanes="1/2to1/1_0 1/2to1/1_1 2/1to1/1_0 2/1to1/1_1 1/0to1/1_0 1/0to1/1_1 0/1to1/1_0 0/1to1/1_1" intLanes="" shape="993.45,1008.05 1006.55,1008.05 1008.05,1006.55 1008.05,993.45 1006.55,991.95 993.45,991.95 991.95,993.45 991.95,1006.55">
        <request index="0" response="000000000000000000" foes="100001000001000000"/>
        <request index="1" response="000000000000000000" foes="011111000011000000"/>
        <request index="2" response="000000000000000000" foes="011111000011000000"/>
        <request index="3" response="000000111000000000" foes="011000111111000000"/>
        <request index="4" response="010000110000100000" foes="010000110000100000"/>
        <request index="5" response="000000110000000000" foes="010000110000010000"/>
        <request index="6" response="000001110000001111" foes="110001110000001111"/>
        <request index="7" response="001101110000001110" foes="001111110000001110"/>
        <request index="8" response="001000001000001000" foes="001000001000001000"/>
        <request index="9" response="000000000000000000" foes="001000000100001000"/>
        <request index="10" response="000000000000000000" foes="011000000011111000"/>
        <request index="11" response="000000000000000000" foes="011000000011111000"/>
        <request index="12" response="000000000000000111" foes="111000000011000111"/>
        <request index="13" response="000100000010000110" foes="000100000010000110"/>
        <request index="14" response="000000000000000110" foes="000010000010000110"/>
        <request index="15" response="000001111000001110" foes="000001111110001110"/>
        <request index="16" response="000001110001101110" foes="000001110001111110"/>
        <request index="17" response="000001000001000001" foes="000001000001000001"/>
    </junction>
    <junction id="1/2" type="priority" x="1000.00" y="2000.00" incLanes="1/3to1/2_0 1/3to1/2_1 2/2to1/2_0 2/2to1/2_1 1/1to1/2_0 1/1to1/2_1 0/2to1/2_0 0/2to1/2_1" intLanes="" shape="993.45,2008.05 1006.55,2008.05 1008.05,2006.55 1008.05,1993.45 1006.55,1991.95 993.45,1991.95 991.95,1993.45 991.95,2006.55">
        <request index="0" response="000000000000000000" foes="100001000001000000"/>
        <request index="1" response="000000000000000000" foes="011111000011000000"/>
        <request index="2" response="000000000000000000" foes="011111000011000000"/>
        <request index="3" response="000000111000000000" foes="011000111111000000"/>
        <request index="4" response="010000110000100000" foes="010000110000100000"/>
        <request index="5" response="000000110000000000" foes="010000110000010000"/>
        <request index="6" response="000001110000001111" foes="110001110000001111"/>
        <request index="7" response="001101110000001110" foes="001111110000001110"/>
        <request index="8" response="001000001000001000" foes="001000001000001000"/>
        <request index="9" response="000000000000000000" foes="001000000100001000"/>
        <request index="10" response="000000000000000000" foes="011000000011111000"/>
        <request index="11" response="000000000000000000" foes="011000000011111000"/>
        <request index="12" response="000000000000000111" foes="111000000011000111"/>
        <request index="13" response="000100000010000110" foes="000100000010000110"/>
        <request index="14" response="000000000000000110" foes="000010000010000110"/>
        <request index="15" response="000001111000001110" foes="000001111110001110"/>
        <request index="16" response="000001110001101110" foes="000001110001111110"/>
        <request index="17" response="000001000001000001" foes="000001000001000001"/>
    </junction>
    <junction id="1/3" type="priority" x="1000.00" y="3000.00" incLanes="2/3to1/3_0 2/3to1/3_1 1/2to1/3_0 1/2to1/3_1 0/3to1/3_0 0/3to1/3_1" intLanes="" shape="1008.05,3006.55 1008.05,2993.45 1006.55,2991.95 993.45,2991.95 991.95,2993.45 991.95,3006.55">
        <request index="0" response="00000000000" foes="10000100000"/>
        <request index="1" response="00000000000" foes="10000100000"/>
        <request index="2" response="01110000000" foes="01111100000"/>
        <request index="3" response="01100010000" foes="01100010000"/>
        <request index="4" response="01100000000" foes="01100001000"/>
        <request index="5" response="01100000111" foes="11100000111"/>
        <request index="6" response="00010000100" foes="00010000100"/>
        <request index="7" response="00000000000" foes="00001000100"/>
        <request index="8" response="00000000000" foes="00000111100"/>
        <request index="9" response="00000000000" foes="00000111100"/>
        <request index="10" response="00000100011" foes="00000100011"/>
    </junction>
    <junction id="2/0" type="priority" x="2000.00" y="0.00" incLanes="2/1to2/0_0 2/1to2/0_1 3/0to2/0_0 3/0to2/0_1 1/0to2/0_0 1/0to2/0_1" intLanes="" shape="1993.45,8.05 2006.55,8.05 2008.05,6.55 2008.05,-6.55 1991.95,-6.55 1991.95,6.55">
        <request index="0" response="00000110000" foes="10000110000"/>
        <request index="1" response="01110110000" foes="01111110000"/>
        <request index="2" response="01000001000" foes="01000001000"/>
        <request index="3" response="00000000000" foes="01000000100"/>
        <request index="4" response="00000000000" foes="11000000011"/>
        <request index="5" response="00000000000" foes="11000000011"/>
        <request index="6" response="00110000010" foes="00110000010"/>
        <request index="7" response="00000000000" foes="00001000010"/>
        <request index="8" response="00000000000" foes="00001000010"/>
        <request index="9" response="00000111000" foes="00000111110"/>
        <request index="10" response="00000110001" foes="00000110001"/>
    </junction>
    <junction id="2/1" type="priority" x="2000.00" y="1000.00" incLanes="2/2to2/1_0 2/2to2/1_1 3/1to2/1_0 3/1to2/1_1 2/0to2/1_0 2/0to2/1_1 1/1to2/1_0 1/1to2/1_1" intLanes="" shape="1993.45,1008.05 2006.55,1008.05 2008.05,1006.55 2008.05,993.45 2006.55,991.95 1993.45,991.95 1991.95,993.45 1991.95,1006.55">
        <request index="0" response="000000000000000000" foes="100001000001000000"/>
        <request index="1" response="000000000000000000" foes="011111000011000000"/>
        <request index="2" response="000000000000000000" foes="011111000011000000"/>
        <request index="3" response="000000111000000000" foes="011000111111000000"/>
        <request index="4" response="010000110000100000" foes="010000110000100000"/>
        <request index="5" response="000000110000000000" foes="010000110000010000"/>
        <request index="6" response="000001110000001111" foes="110001110000001111"/>
        <request index="7" response="001101110000001110" foes="001111110000001110"/>
        <request index="8" response="001000001000001000" foes="001000001000001000"/>
        <request index="9" response="000000000000000000" foes="001000000100001000"/>
        <request index="10" response="000000000000000000" foes="011000000011111000"/>
        <request index="11" response="000000000000000000" foes="011000000011111000"/>
        <request index="12" response="000000000000000111" foes="111000000011000111"/>
        <request index="13" response="000100000010000110" foes="000100000010000110"/>
        <request index="14" response="000000000000000110" foes="000010000010000110"/>
        <request index="15" response="000001111000001110" foes="000001111110001110"/>
        <request index="16" response="000001110001101110" foes="000001110001111110"/>
        <request index="17" response="000001000001000001" foes="000001000001000001"/>
    </junction>
    <junction id="2/2" type="priority" x="2000.00" y="2000.00" incLanes="2/3to2/2_0 2/3to2/2_1 3/2to2/2_0 3/2to2/2_1 2/1to2/2_0 2/1to2/2_1 1/2to2/2_0 1/2to2/2_1" intLanes="" shape="1993.45,2008.05 2006.55,2008.05 2008.05,2006.55 2008.05,1993.45 2006.55,1991.95 1993.45,1991.95 1991.95,1993.45 1991.95,2006.55">
        <request index="0" response="000000000000000000" foes="100001000001000000"/>
        <request index="1" response="000000000000000000" foes="011111000011000000"/>
        <request index="2" response="000000000000000000" foes="011111000011000000"/>
        <request index="3" response="000000111000000000" foes="011000111111000000"/>
        <request index="4" response="010000110000100000" foes="010000110000100000"/>
        <request index="5" response="000000110000000000" foes="010000110000010000"/>
        <request index="6" response="000001110000001111" foes="110001110000001111"/>
        <request index="7" response="001101110000001110" foes="001111110000001110"/>
        <request index="8" response="001000001000001000" foes="001000001000001000"/>
        <request index="9" response="000000000000000000" foes="001000000100001000"/>
        <request index="10" response="000000000000000000" foes="011000000011111000"/>
        <request index="11" response="000000000000000000" foes="011000000011111000"/>
        <request index="12" response="000000000000000111" foes="111000000011000111"/>
        <request index="13" response="000100000010000110" foes="000100000010000110"/>
        <request index="14" response="000000000000000110" foes="000010000010000110"/>
        <request index="15" response="000001111000001110" foes="000001111110001110"/>
        <request index="16" response="000001110001101110" foes="000001110001111110"/>
        <request index="17" response="000001000001000001" foes="000001000001000001"/>
    </junction>
    <junction id="2/3" type="priority" x="2000.00" y="3000.00" incLanes="3/3to2/3_0 3/3to2/3_1 2/2to2/3_0 2/2to2/3_1 1/3to2/3_0 1/3to2/3_1" intLanes="" shape="2008.05,3006.55 2008.05,2993.45 2006.55,2991.95 1993.45,2991.95 1991.95,2993.45 1991.95,3006.55">
        <request index="0" response="00000000000" foes="10000100000"/>
        <request index="1" response="00000000000" foes="10000100000"/>
        <request index="2" response="01110000000" foes="01111100000"/>
        <request index="3" response="01100010000" foes="01100010000"/>
        <request index="4" response="01100000000" foes="01100001000"/>
        <request index="5" response="01100000111" foes="11100000111"/>
        <request index="6" response="00010000100" foes="00010000100"/>
        <request index="7" response="00000000000" foes="00001000100"/>
        <request index="8" response="00000000000" foes="00000111100"/>
        <request index="9" response="00000000000" foes="00000111100"/>
        <request index="10" response="00000100011" foes="00000100011"/>
    </junction>