<?xml version="1.0" encoding="UTF-8"?>

<!-- generated on 03/15/17 21:07:02 by SUMO duarouter Version 0.27.1
<?xml version="1.0" encoding="UTF-8"?>

<configuration xmlns:xsi="http://www.w3.org/2001/XMLSchema-instance" xsi:noNamespaceSchemaLocation="http://sumo.dlr.de/xsd/duarouterConfiguration.xsd">

    <input>
        <net-file value="input_net.net.xml"/>
        <trip-files value="trips.trips.xml"/>
    </input>

    <output>
        <output-file value="routes.rou.xml"/>
    </output>

</configuration>
-->

<routes xmlns:xsi="http://www.w3.org/2001/XMLSchema-instance" xsi:noNamespaceSchemaLocation="http://sumo.dlr.de/xsd/routes_file.xsd">
    <vehicle id="0" depart="0.00">
        <route edges="0/3to1/3 1/3to1/2 1/2to2/2 2/2to3/2 3/2to3/1"/>
    </vehicle>
    <vehicle id="1" depart="0.05">
        <route edges="2/2to2/1 2/1to3/1 3/1to2/1"/>
    </vehicle>
    <vehicle id="2" depart="0.10">
        <route edges="1/1to2/1 2/1to1/1 1/1to1/2 1/2to1/3 1/3to1/2"/>
    </vehicle>
    <vehicle id="3" depart="0.15">
        <route edges="3/0to3/1 3/1to2/1"/>
    </vehicle>
    <vehicle id="4" depart="0.20">
        <route edges="0/0to1/0 1/0to2/0"/>
    </vehicle>
    <vehicle id="5" depart="0.25">
        <route edges="2/2to3/2 3/2to2/2 2/2to2/1 2/1to3/1"/>
    </vehicle>
    <vehicle id="6" depart="0.30">
        <route edges="2/1to2/2 2/2to1/2 1/2to0/2 0/2to0/1 0/1to0/0"/>
    </vehicle>
    <vehicle id="7" depart="0.35">
        <route edges="1/0to1/1 1/1to0/1 0/1to0/2 0/2to0/3"/>
    </vehicle>
    <vehicle id="8" depart="0.40">
        <route edges="2/1to3/1 3/1to3/0 3/0to2/0"/>
    </vehicle>
    <vehicle id="9" depart="0.45">
        <route edges="1/0to0/0 0/0to0/1 0/1to1/1 1/1to2/1 2/1to2/0"/>
    </vehicle>
    <vehicle id="10" depart="0.50">
        <route edges="1/1to1/2 1/2to2/2 2/2to3/2"/>
    </vehicle>
    <vehicle id="11" depart="0.55">
        <route edges="2/2to2/1"/>
    </vehicle>
    <vehicle id="12" depart="0.60">
        <route edges="2/1to1/1 1/1to0/1 0/1to1/1"/>
    </vehicle>
    <vehicle id="13" depart="0.65">
        <route edges="1/2to0/2 0/2to1/2 1/2to2/2 2/2to3/2"/>
    </vehicle>
    <vehicle id="14" depart="0.70">
        <route edges="0/0to0/1 0/1to0/2 0/2to1/2 1/2to2/2 2/2to2/1"/>
    </vehicle>
    <vehicle id="15" depart="0.75">
        <route edges="1/1to0/1 0/1to1/1"/>
    </vehicle>
    <vehicle id="16" depart="0.80">
        <route edges="2/1to3/1 3/1to2/1 2/1to2/2 2/2to2/3 2/3to2/2"/>
    </vehicle>
    <vehicle id="17" depart="0.85">
        <route edges="0/2to0/1 0/1to1/1 1/1to2/1 2/1to3/1 3/1to2/1"/>
    </vehicle>
    <vehicle id="18" depart="0.90">
        <route edges="3/2to2/2 2/2to1/2 1/2to0/2 0/2to0/1 0/1to0/2"/>
    </vehicle>
    <vehicle id="19" depart="0.95">
        <route edges="3/1to3/0 3/0to2/0 2/0to1/0 1/0to0/0 0/0to0/1"/>
    </vehicle>
    <vehicle id="20" depart="1.00">
        <route edges="2/2to2/1 2/1to1/1 1/1to1/2 1/2to0/2"/>
    </vehicle>
    <vehicle id="21" depart="1.05">
        <route edges="1/3to2/3 2/3to2/2 2/2to2/1 2/1to3/1 3/1to3/2"/>
    </vehicle>
    <vehicle id="22" depart="1.10">
        <route edges="3/1to2/1 2/1to2/2 2/2to2/3 2/3to1/3"/>
    </vehicle>
    <vehicle id="23" depart="1.15">
        <route edges="1/0to1/1 1/1to1/2 1/2to1/3 1/3to0/3"/>
    </vehicle>
    <vehicle id="24" depart="1.20">
        <route edges="2/2to1/2 1/2to2/2"/>
    </vehicle>
    <vehicle id="25" depart="1.25">
        <route edges="1/1to0/1 0/1to0/2 0/2to1/2 1/2to0/2"/>
    </vehicle>
    <vehicle id="26" depart="1.30">
        <route edges="3/2to3/1 3/1to2/1 2/1to1/1 1/1to1/0"/>
    </vehicle>
    <vehicle id="27" depart="1.35">
        <route edges="2/1to3/1 3/1to2/1 2/1to1/1 1/1to0/1 0/1to1/1"/>
    </vehicle>
    <vehicle id="28" depart="1.40">
        <route edges="0/1to0/2 0/2to1/2 1/2to2/2 2/2to1/2"/>
    </vehicle>
    <vehicle id="29" depart="1.45">
        <route edges="1/0to1/1 1/1to1/0 1/0to2/0 2/0to3/0 3/0to2/0"/>
    </vehicle>
    <vehicle id="30" depart="1.50">
        <route edges="1/2to1/3"/>
    </vehicle>
    <vehicle id="31" depart="1.55">
        <route edges="0/3to0/2 0/2to0/1 0/1to1/1 1/1to2/1 2/1to3/1 3/1to2/1"/>
    </vehicle>
    <vehicle id="32" depart="1.60">
        <route edges="0/3to0/2 0/2to0/3 0/3to1/3 1/3to2/3 2/3to3/3 3/3to3/2"/>
    </vehicle>
    <vehicle id="33" depart="1.65">
        <route edges="1/0to1/1 1/1to1/2 1/2to2/2"/>
    </vehicle>
    <vehicle id="34" depart="1.70">
        <route edges="3/1to3/0 3/0to2/0 2/0to1/0"/>
    </vehicle>
    <vehicle id="35" depart="1.75">
        <route edges="2/3to1/3 1/3to1/2 1/2to1/1 1/1to1/0 1/0to2/0 2/0to3/0"/>
    </vehicle>
    <vehicle id="36" depart="1.80">
        <route edges="1/1to2/1 2/1to1/1 1/1to0/1 0/1to0/0 0/0to1/0"/>
    </vehicle>
    <vehicle id="37" depart="1.85">
        <route edges="0/0to0/1 0/1to0/2 0/2to1/2 1/2to1/3"/>
    </vehicle>
    <vehicle id="38" depart="1.90">
        <route edges="1/0to1/1 1/1to0/1 0/1to0/0 0/0to1/0"/>
    </vehicle>
    <vehicle id="39" depart="1.95">
        <route edges="0/2to0/3 0/3to0/2 0/2to1/2 1/2to1/1"/>
    </vehicle>
    <vehicle id="40" depart="2.00">
        <route edges="0/1to0/2 0/2to0/3 0/3to1/3 1/3to1/2"/>
    </vehicle>
    <vehicle id="41" depart="2.05">
        <route edges="3/2to3/3 3/3to2/3 2/3to2/2 2/2to2/1 2/1to2/0 2/0to2/1"/>
    </vehicle>
    <vehicle id="42" depart="2.10">
        <route edges="3/1to3/0 3/0to3/1 3/1to2/1"/>
    </vehicle>
    <vehicle id="43" depart="2.15">
        <route edges="2/1to2/2 2/2to3/2"/>
    </vehicle>
    <vehicle id="44" depart="2.20">
        <route edges="0/3to0/2 0/2to0/3 0/3to1/3 1/3to2/3"/>
    </vehicle>
    <vehicle id="45" depart="2.25">
        <route edges="1/1to2/1 2/1to2/2 2/2to3/2 3/2to2/2"/>
    </vehicle>
    <vehicle id="46" depart="2.30">
        <route edges="0/1to0/2 0/2to1/2 1/2to2/2 2/2to2/3"/>
    </vehicle>
    <vehicle id="47" depart="2.35">
        <route edges="3/3to2/3 2/3to1/3 1/3to0/3"/>
    </vehicle>
    <vehicle id="48" depart="2.40">
        <route edges="3/1to3/0 3/0to2/0 2/0to2/1 2/1to2/2 2/2to2/3 2/3to3/3"/>
    </vehicle>
    <vehicle id="49" depart="2.45">
        <route edges="1/1to0/1 0/1to0/2 0/2to0/3 0/3to1/3 1/3to1/2"/>
    </vehicle>
    <vehicle id="50" depart="2.50">
        <route edges="2/0to2/1 2/1to1/1 1/1to0/1 0/1to0/2 0/2to0/3"/>
    </vehicle>
    <vehicle id="51" depart="2.55">
        <route edges="2/0to2/1 2/1to2/2 2/2to3/2"/>
    </vehicle>
    <vehicle id="52" depart="2.60">
        <route edges="3/2to2/2 2/2to1/2 1/2to0/2 0/2to0/1"/>
    </vehicle>
    <vehicle id="53" depart="2.65">
        <route edges="1/3to1/2 1/2to1/1 1/1to1/0 1/0to2/0 2/0to3/0 3/0to2/0"/>
    </vehicle>
    <vehicle id="54" depart="2.70">
        <route edges="0/3to1/3 1/3to1/2 1/2to1/1 1/1to2/1 2/1to3/1 3/1to2/1"/>
    </vehicle>
    <vehicle id="55" depart="2.75">
        <route edges="2/1to3/1 3/1to2/1 2/1to1/1 1/1to1/0 1/0to1/1"/>
    </vehicle>
    <vehicle id="56" depart="2.80">
        <route edges="0/0to0/1 0/1to0/2 0/2to1/2 1/2to2/2 2/2to3/2 3/2to3/3"/>
    </vehicle>
    <vehicle id="57" depart="2.85">
        <route edges="1/1to1/2 1/2to1/1 1/1to2/1 2/1to3/1 3/1to2/1"/>
    </vehicle>
    <vehicle id="58" depart="2.90">
        <route edges="2/3to2/2 2/2to1/2 1/2to0/2 0/2to0/1 0/1to0/0 0/0to0/1"/>
    </vehicle>
    <vehicle id="59" depart="2.95">
        <route edges="0/1to0/2 0/2to1/2 1/2to0/2"/>
    </vehicle>
    <vehicle id="60" depart="3.00">
        <route edges="2/1to2/2 2/2to1/2 1/2to0/2 0/2to0/1"/>
    </vehicle>
    <vehicle id="61" depart="3.05">
        <route edges="3/2to2/2 2/2to1/2 1/2to1/1 1/1to0/1"/>
    </vehicle>
    <vehicle id="62" depart="3.10">
        <route edges="0/2to0/3 0/3to0/2 0/2to0/1 0/1to0/0 0/0to1/0 1/0to2/0 2/0to3/0"/>
    </vehicle>
    <vehicle id="63" depart="3.15">
        <route edges="0/2to1/2 1/2to1/3"/>
    </vehicle>
    <vehicle id="64" depart="3.20">
        <route edges="2/3to1/3 1/3to1/2 1/2to1/1 1/1to1/0"/>
    </vehicle>
    <vehicle id="65" depart="3.25">
        <route edges="3/0to3/1 3/1to2/1 2/1to1/1 1/1to1/2 1/2to0/2"/>
    </vehicle>
    <vehicle id="66" depart="3.30">
        <route edges="1/0to0/0 0/0to0/1"/>
    </vehicle>
    <vehicle id="67" depart="3.35">
        <route edges="2/0to3/0 3/0to2/0 2/0to2/1 2/1to3/1"/>
    </vehicle>
    <vehicle id="68" depart="3.40">
        <route edges="1/2to1/1 1/1to1/0 1/0to2/0 2/0to2/1"/>
    </vehicle>
    <vehicle id="69" depart="3.45">
        <route edges="2/1to2/0 2/0to2/1 2/1to1/1"/>
    </vehicle>
    <vehicle id="70" depart="3.50">
        <route edges="1/3to1/2 1/2to2/2 2/2to3/2"/>
    </vehicle>
    <vehicle id="71" depart="3.55">
        <route edges="2/1to2/0 2/0to1/0 1/0to0/0 0/0to0/1 0/1to0/2 0/2to0/3"/>
    </vehicle>
    <vehicle id="72" depart="3.60">
        <route edges="3/2to2/2 2/2to2/1 2/1to3/1 3/1to2/1"/>
    </vehicle>
    <vehicle id="73" depart="3.65">
        <route edges="0/2to0/3 0/3to0/2 0/2to1/2 1/2to2/2 2/2to3/2 3/2to3/3"/>
    </vehicle>
    <vehicle id="74" depart="3.70">
        <route edges="2/0to3/0 3/0to3/1 3/1to3/2"/>
    </vehicle>
    <vehicle id="75" depart="3.75">
        <route edges="0/0to1/0 1/0to1/1 1/1to1/2 1/2to0/2"/>
    </vehicle>
    <vehicle id="76" depart="3.80">
        <route edges="3/2to3/3 3/3to2/3 2/3to2/2"/>
    </vehicle>
    <vehicle id="77" depart="3.85">
        <route edges="3/3to2/3 2/3to2/2 2/2to1/2"/>
    </vehicle>
    <vehicle id="78" depart="3.90">
        <route edges="0/1to1/1 1/1to1/2 1/2to2/2 2/2to1/2"/>
    </vehicle>
    <vehicle id="79" depart="3.95">
        <route edges="0/0to0/1 0/1to0/2 0/2to0/1"/>
    </vehicle>
    <vehicle id="80" depart="4.00">
        <route edges="3/0to3/1 3/1to2/1 2/1to1/1 1/1to1/0 1/0to2/0"/>
    </vehicle>
    <vehicle id="81" depart="4.05">
        <route edges="2/1to1/1 1/1to1/2 1/2to2/2 2/2to1/2"/>
    </vehicle>
    <vehicle id="82" depart="4.10">
        <route edges="0/1to0/0"/>
    </vehicle>
    <vehicle id="83" depart="4.15">
        <route edges="1/0to2/0 2/0to2/1 2/1to2/2 2/2to3/2"/>
    </vehicle>
    <vehicle id="84" depart="4.20">
        <route edges="2/3to3/3"/>
    </vehicle>
    <vehicle id="85" depart="4.25">
        <route edges="2/0to3/0 3/0to2/0 2/0to2/1 2/1to3/1"/>
    </vehicle>
    <vehicle id="86" depart="4.30">
        <route edges="3/0to3/1 3/1to2/1"/>
    </vehicle>
    <vehicle id="87" depart="4.35">
        <route edges="3/0to2/0 2/0to1/0 1/0to0/0"/>
    </vehicle>
    <vehicle id="88" depart="4.40">
        <route edges="1/0to1/1 1/1to1/2 1/2to1/1"/>
    </vehicle>
    <vehicle id="89" depart="4.45">
        <route edges="2/3to1/3 1/3to0/3"/>
    </vehicle>
    <vehicle id="90" depart="4.50">
        <route edges="3/3to3/2 3/2to2/2 2/2to1/2 1/2to0/2 0/2to1/2"/>
    </vehicle>
    <vehicle id="91" depart="4.55">
        <route edges="3/2to2/2 2/2to2/3"/>
    </vehicle>
    <vehicle id="92" depart="4.60">
        <route edges="3/3to2/3 2/3to1/3 1/3to1/2 1/2to2/2"/>
    </vehicle>
    <vehicle id="93" depart="4.65">
        <route edges="0/1to0/2 0/2to0/3 0/3to1/3"/>
    </vehicle>
    <vehicle id="94" depart="4.70">
        <route edges="2/3to2/2 2/2to2/3 2/3to1/3"/>
    </vehicle>
    <vehicle id="95" depart="4.75">
        <route edges="1/1to0/1 0/1to0/2 0/2to0/3 0/3to1/3 1/3to1/2"/>
    </vehicle>
    <vehicle id="96" depart="4.80">
        <route edges="1/3to2/3 2/3to2/2 2/2to2/1 2/1to2/0 2/0to3/0"/>
    </vehicle>
    <vehicle id="97" depart="4.85">
        <route edges="2/0to2/1 2/1to2/0 2/0to1/0"/>
    </vehicle>
    <vehicle id="98" depart="4.90">
        <route edges="1/3to1/2 1/2to0/2 0/2to0/1 0/1to1/1"/>
    </vehicle>
    <vehicle id="99" depart="4.95">
        <route edges="2/2to1/2 1/2to1/1 1/1to2/1 2/1to3/1 3/1to2/1"/>
    </vehicle>
    <vehicle id="100" depart="5.00">
        <route edges="3/1to3/2 3/2to2/2 2/2to2/1"/>
    </vehicle>
    <vehicle id="101" depart="5.05">
        <route edges="1/3to0/3 0/3to0/2 0/2to1/2 1/2to0/2"/>
    </vehicle>
    <vehicle id="102" depart="5.10">
        <route edges="3/1to2/1 2/1to2/2 2/2to3/2 3/2to2/2"/>
    </vehicle>
    <vehicle id="103" depart="5.15">
        <route edges="0/2to0/3 0/3to0/2 0/2to1/2"/>
    </vehicle>
    <vehicle id="104" depart="5.20">
        <route edges="3/0to3/1 3/1to2/1 2/1to1/1"/>
    </vehicle>
    <vehicle id="105" depart="5.25">
        <route edges="2/3to1/3 1/3to2/3 2/3to3/3 3/3to3/2"/>
    </vehicle>
    <vehicle id="106" depart="5.30">
        <route edges="2/2to2/3 2/3to2/2 2/2to2/1 2/1to2/2"/>
    </vehicle>
    <vehicle id="107" depart="5.35">
        <route edges="3/3to3/2 3/2to2/2 2/2to1/2 1/2to0/2 0/2to0/3"/>
    </vehicle>
    <vehicle id="108" depart="5.40">
        <route edges="2/3to1/3 1/3to1/2 1/2to1/1 1/1to1/0 1/0to2/0 2/0to3/0 3/0to3/1"/>
    </vehicle>
    <vehicle id="109" depart="5.45">
        <route edges="3/0to2/0 2/0to2/1 2/1to2/2 2/2to2/3 2/3to3/3 3/3to3/2"/>
    </vehicle>
    <vehicle id="110" depart="5.50">
        <route edges="2/0to1/0 1/0to2/0 2/0to3/0 3/0to3/1"/>
    </vehicle>
    <vehicle id="111" depart="5.55">
        <route edges="3/2to2/2 2/2to1/2 1/2to1/3 1/3to2/3"/>
    </vehicle>
    <vehicle id="112" depart="5.60">
        <route edges="1/1to1/2 1/2to2/2 2/2to3/2 3/2to3/3"/>
    </vehicle>
    <vehicle id="113" depart="5.65">
        <route edges="1/3to0/3 0/3to0/2 0/2to0/1 0/1to1/1 1/1to2/1 2/1to3/1 3/1to2/1"/>
    </vehicle>
    <vehicle id="114" depart="5.70">
        <route edges="1/3to1/2 1/2to1/1 1/1to2/1 2/1to2/0"/>
    </vehicle>
    <vehicle id="115" depart="5.75">
        <route edges="3/0to2/0 2/0to1/0"/>
    </vehicle>
    <vehicle id="116" depart="5.80">
        <route edges="0/1to0/2 0/2to0/3 0/3to1/3 1/3to2/3 2/3to3/3"/>
    </vehicle>
    <vehicle id="117" depart="5.85">
        <route edges="2/2to2/1 2/1to1/1 1/1to1/2 1/2to0/2"/>
    </vehicle>
    <vehicle id="118" depart="5.90">
        <route edges="3/0to3/1 3/1to3/2 3/2to3/3 3/3to3/2"/>
    </vehicle>
    <vehicle id="119" depart="5.95">
        <route edges="3/3to2/3 2/3to1/3 1/3to1/2 1/2to1/1 1/1to0/1"/>
    </vehicle>
    <vehicle id="120" depart="6.00">
        <route edges="2/3to1/3 1/3to1/2 1/2to1/1 1/1to1/2"/>
    </vehicle>
    <vehicle id="121" depart="6.05">
        <route edges="0/1to1/1 1/1to1/0 1/0to2/0 2/0to3/0"/>
    </vehicle>
    <vehicle id="122" depart="6.10">
        <route edges="2/3to3/3 3/3to2/3 2/3to1/3 1/3to0/3 0/3to0/2"/>
    </vehicle>
    <vehicle id="123" depart="6.15">
        <route edges="1/1to1/2"/>
    </vehicle>
    <vehicle id="124" depart="6.20">
        <route edges="0/3to0/2 0/2to0/1 0/1to0/0 0/0to1/0 1/0to2/0 2/0to3/0"/>
    </vehicle>
    <vehicle id="125" depart="6.25">
        <route edges="3/0to2/0 2/0to2/1"/>
    </vehicle>
    <vehicle id="126" depart="6.30">
        <route edges="1/3to0/3 0/3to1/3 1/3to2/3 2/3to3/3 3/3to3/2"/>
    </vehicle>
    <vehicle id="127" depart="6.35">
        <route edges="1/1to1/0 1/0to1/1 1/1to1/2 1/2to1/3 1/3to2/3 2/3to1/3"/>
    </vehicle>
    <vehicle id="128" depart="6.40">
        <route edges="2/0to3/0 3/0to2/0 2/0to1/0 1/0to1/1 1/1to1/2"/>
    </vehicle>
    <vehicle id="129" depart="6.45">
        <route edges="1/3to1/2 1/2to2/2 2/2to1/2"/>
    </vehicle>
    <vehicle id="130" depart="6.50">
        <route edges="0/3to0/2 0/2to0/1 0/1to0/2"/>
    </vehicle>
    <vehicle id="131" depart="6.55">
        <route edges="3/2to3/3 3/3to2/3 2/3to2/2 2/2to2/1 2/1to2/0"/>
    </vehicle>
    <vehicle id="132" depart="6.60">
        <route edges="2/0to3/0 3/0to3/1"/>
    </vehicle>
    <vehicle id="133" depart="6.65">
        <route edges="0/1to0/0 0/0to0/1 0/1to0/2 0/2to0/3"/>
    </vehicle>
    <vehicle id="134" depart="6.70">
        <route edges="2/1to1/1 1/1to0/1 0/1to0/0 0/0to0/1"/>
    </vehicle>
    <vehicle id="135" depart="6.75">
        <route edges="1/1to2/1 2/1to1/1 1/1to0/1"/>
    </vehicle>
    <vehicle id="136" depart="6.80">
        <route edges="3/1to3/2 3/2to2/2 2/2to1/2 1/2to1/3"/>
    </vehicle>
    <vehicle id="137" depart="6.85">
        <route edges="0/2to0/1 0/1to0/0 0/0to1/0 1/0to2/0 2/0to3/0 3/0to2/0"/>
    </vehicle>
    <vehicle id="138" depart="6.90">
        <route edges="2/1to2/0 2/0to1/0 1/0to0/0 0/0to1/0"/>
    </vehicle>
    <vehicle id="139" depart="6.95">
        <route edges="3/3to2/3 2/3to2/2 2/2to3/2 3/2to3/1"/>
    </vehicle>
    <vehicle id="140" depart="7.00">
        <route edges="3/2to3/3 3/3to2/3 2/3to1/3"/>
    </vehicle>
    <vehicle id="141" depart="7.05">
        <route edges="3/1to3/0"/>
    </vehicle>
    <vehicle id="142" depart="7.10">
        <route edges="1/2to0/2 0/2to1/2 1/2to2/2 2/2to1/2"/>
    </vehicle>
    <vehicle id="143" depart="7.15">
        <route edges="1/2to2/2 2/2to1/2 1/2to1/3"/>
    </vehicle>
    <vehicle id="144" depart="7.20">
        <route edges="1/1to1/2 1/2to0/2 0/2to0/1 0/1to1/1"/>
    </vehicle>
    <vehicle id="145" depart="7.25">
        <route edges="3/0to2/0 2/0to2/1 2/1to2/2 2/2to3/2 3/2to3/1"/>
    </vehicle>
    <vehicle id="146" depart="7.30">
        <route edges="0/0to0/1 0/1to0/0 0/0to1/0"/>
    </vehicle>
    <vehicle id="147" depart="7.35">
        <route edges="3/2to2/2 2/2to2/1 2/1to3/1"/>
    </vehicle>
    <vehicle id="148" depart="7.40">
        <route edges="2/0to3/0 3/0to2/0 2/0to1/0"/>
    </vehicle>
    <vehicle id="149" depart="7.45">
        <route edges="3/1to3/0"/>
    </vehicle>
    <vehicle id="150" depart="7.50">
        <route edges="2/1to3/1 3/1to3/2"/>
    </vehicle>
    <vehicle id="151" depart="7.55">
        <route edges="1/0to0/0 0/0to0/1 0/1to0/2 0/2to1/2 1/2to2/2 2/2to2/3"/>
    </vehicle>
    <vehicle id="152" depart="7.60">
        <route edges="3/0to2/0 2/0to1/0 1/0to0/0 0/0to0/1 0/1to0/2"/>
    </vehicle>
    <vehicle id="153" depart="7.65">
        <route edges="3/2to3/3 3/3to2/3 2/3to2/2 2/2to2/1 2/1to2/0"/>
    </vehicle>
    <vehicle id="154" depart="7.70">
        <route edges="0/1to1/1 1/1to1/2 1/2to2/2 2/2to1/2"/>
    </vehicle>
    <vehicle id="155" depart="7.75">
        <route edges="2/1to2/2 2/2to3/2 3/2to3/1"/>
    </vehicle>
    <vehicle id="156" depart="7.80">
        <route edges="1/3to1/2 1/2to1/3"/>
    </vehicle>
    <vehicle id="157" depart="7.85">
        <route edges="1/0to0/0 0/0to0/1 0/1to0/2 0/2to1/2 1/2to2/2 2/2to1/2"/>
    </vehicle>
    <vehicle id="158" depart="7.90">
        <route edges="0/1to0/2 0/2to0/1 0/1to1/1 1/1to2/1 2/1to1/1"/>
    </vehicle>
    <vehicle id="159" depart="7.95">
        <route edges="3/0to2/0 2/0to2/1 2/1to2/2 2/2to2/1"/>
    </vehicle>
    <vehicle id="160" depart="8.00">
        <route edges="2/1to1/1 1/1to1/2 1/2to1/1"/>
    </vehicle>
    <vehicle id="161" depart="8.05">
        <route edges="3/1to3/0 3/0to3/1 3/1to3/2 3/2to3/1"/>
    </vehicle>
    <vehicle id="162" depart="8.10">
        <route edges="1/0to0/0 0/0to1/0 1/0to2/0 2/0to3/0 3/0to3/1"/>
    </vehicle>
    <vehicle id="163" depart="8.15">
        <route edges="0/1to0/0 0/0to1/0 1/0to2/0 2/0to3/0 3/0to3/1"/>
    </vehicle>
    <vehicle id="164" depart="8.20">
        <route edges="0/2to0/3 0/3to1/3 1/3to2/3 2/3to3/3"/>
    </vehicle>
    <vehicle id="165" depart="8.25">
        <route edges="2/1to3/1 3/1to2/1 2/1to1/1 1/1to1/2 1/2to1/1"/>
    </vehicle>
    <vehicle id="166" depart="8.30">
        <route edges="1/2to1/1 1/1to1/0 1/0to2/0"/>
    </vehicle>
    <vehicle id="167" depart="8.35">
        <route edges="1/3to0/3 0/3to0/2 0/2to0/1 0/1to0/0 0/0to1/0 1/0to2/0 2/0to3/0 3/0to3/1"/>
    </vehicle>
    <vehicle id="168" depart="8.40">
        <route edges="1/0to2/0 2/0to2/1 2/1to1/1"/>
    </vehicle>
    <vehicle id="169" depart="8.45">
        <route edges="0/2to0/3 0/3to0/2 0/2to1/2 1/2to2/2 2/2to3/2 3/2to3/1"/>
    </vehicle>
    <vehicle id="170" depart="8.50">
        <route edges="0/3to0/2 0/2to0/1 0/1to0/0 0/0to1/0 1/0to2/0 2/0to3/0 3/0to3/1"/>
    </vehicle>
    <vehicle id="171" depart="8.55">
        <route edges="2/2to2/1 2/1to2/0 2/0to3/0"/>
    </vehicle>
    <vehicle id="172" depart="8.60">
        <route edges="2/0to2/1 2/1to2/2 2/2to2/3 2/3to3/3 3/3to3/2"/>
    </vehicle>
    <vehicle id="173" depart="8.65">
        <route edges="3/2to3/1 3/1to2/1 2/1to1/1 1/1to0/1 0/1to0/2 0/2to1/2"/>
    </vehicle>
    <vehicle id="174" depart="8.70">
        <route edges="1/3to1/2 1/2to1/1 1/1to2/1"/>
    </vehicle>
    <vehicle id="175" depart="8.75">
        <route edges="3/2to3/1 3/1to2/1 2/1to1/1 1/1to1/0 1/0to0/0"/>
    </vehicle>
    <vehicle id="176" depart="8.80">
        <route edges="0/1to1/1 1/1to0/1 0/1to0/2"/>
    </vehicle>
    <vehicle id="177" depart="8.85">
        <route edges="2/2to3/2 3/2to2/2 2/2to2/1 2/1to1/1"/>
    </vehicle>
    <vehicle id="178" depart="8.90">
        <route edges="1/2to0/2 0/2to0/3 0/3to1/3"/>
    </vehicle>
    <vehicle id="179" depart="8.95">
        <route edges="0/2to0/1 0/1to1/1 1/1to1/2"/>
    </vehicle>
    <vehicle id="180" depart="9.00">
        <route edges="0/3to0/2 0/2to0/1 0/1to1/1 1/1to2/1 2/1to3/1 3/1to2/1"/>
    </vehicle>
    <vehicle id="181" depart="9.05">
        <route edges="1/1to1/2 1/2to1/1 1/1to2/1 2/1to1/1"/>
    </vehicle>
    <vehicle id="182" depart="9.10">
        <route edges="1/2to1/1 1/1to2/1 2/1to2/2"/>
    </vehicle>
    <vehicle id="183" depart="9.15">
        <route edges="1/1to2/1 2/1to2/2 2/2to2/3 2/3to1/3"/>
    </vehicle>
    <vehicle id="184" depart="9.20">
        <route edges="0/0to0/1 0/1to1/1 1/1to2/1 2/1to3/1"/>
    </vehicle>
    <vehicle id="185" depart="9.25">
        <route edges="3/1to3/0 3/0to2/0 2/0to2/1 2/1to2/2 2/2to2/3 2/3to1/3"/>
    </vehicle>
    <vehicle id="186" depart="9.30">
        <route edges="3/2to3/3 3/3to2/3 2/3to1/3 1/3to0/3 0/3to0/2 0/2to0/1 0/1to0/2"/>
    </vehicle>
    <vehicle id="187" depart="9.35">
        <route edges="1/2to2/2 2/2to1/2 1/2to0/2 0/2to0/1 0/1to0/2"/>
    </vehicle>
    <vehicle id="188" depart="9.40">
        <route edges="1/1to1/0 1/0to1/1 1/1to2/1 2/1to3/1 3/1to3/0"/>
    </vehicle>
    <vehicle id="189" depart="9.45">
        <route edges="1/2to1/3 1/3to1/2 1/2to2/2 2/2to2/3"/>
    </vehicle>
    <vehicle id="190" depart="9.50">
        <route edges="1/3to0/3 0/3to1/3 1/3to2/3 2/3to3/3"/>
    </vehicle>
    <vehicle id="191" depart="9.55">
        <route edges="1/1to1/0 1/0to1/1 1/1to1/2 1/2to1/3 1/3to2/3 2/3to3/3 3/3to2/3"/>
    </vehicle>
    <vehicle id="192" depart="9.60">
        <route edges="0/1to0/2 0/2to0/3 0/3to1/3 1/3to2/3"/>
    </vehicle>
    <vehicle id="193" depart="9.65">
        <route edges="0/3to1/3 1/3to1/2 1/2to2/2 2/2to1/2"/>
    </vehicle>
    <vehicle id="194" depart="9.70">
        <route edges="3/3to2/3 2/3to2/2 2/2to3/2 3/2to3/1"/>
    </vehicle>
    <vehicle id="195" depart="9.75">
        <route edges="1/3to0/3 0/3to1/3 1/3to2/3 2/3to3/3 3/3to3/2"/>
    </vehicle>
    <vehicle id="196" depart="9.80">
        <route edges="0/1to0/0 0/0to1/0 1/0to2/0 2/0to3/0 3/0to2/0"/>
    </vehicle>
    <vehicle id="197" depart="9.85">
        <route edges="3/0to2/0 2/0to1/0 1/0to1/1 1/1to1/2"/>
    </vehicle>
    <vehicle id="198" depart="9.90">
        <route edges="1/2to1/1 1/1to2/1 2/1to3/1 3/1to3/0"/>
    </vehicle>
    <vehicle id="199" depart="9.95">
        <route edges="0/3to1/3 1/3to0/3 0/3to0/2 0/2to0/1 0/1to1/1"/>
    </vehicle>
    <vehicle id="200" depart="10.00">
        <route edges="1/3to2/3 2/3to2/2 2/2to3/2 3/2to2/2"/>
    </vehicle>
    <vehicle id="201" depart="10.05">
        <route edges="0/0to1/0 1/0to1/1 1/1to1/2 1/2to2/2 2/2to3/2 3/2to3/1"/>
    </vehicle>
    <vehicle id="202" depart="10.10">
        <route edges="3/3to2/3 2/3to1/3 1/3to1/2 1/2to2/2"/>
    </vehicle>
    <vehicle id="203" depart="10.15">
        <route edges="1/2to1/3 1/3to1/2 1/2to1/1 1/1to1/0"/>
    </vehicle>
    <vehicle id="204" depart="10.20">
        <route edges="2/0to2/1"/>
    </vehicle>
    <vehicle id="205" depart="10.25">
        <route edges="3/2to3/1 3/1to2/1 2/1to1/1 1/1to1/2 1/2to1/3"/>
    </vehicle>
    <vehicle id="206" depart="10.30">
        <route edges="2/0to3/0 3/0to3/1 3/1to3/2 3/2to2/2"/>
    </vehicle>
    <vehicle id="207" depart="10.35">
        <route edges="0/3to0/2 0/2to0/1 0/1to1/1 1/1to2/1 2/1to3/1"/>
    </vehicle>
    <vehicle id="208" depart="10.40">
        <route edges="0/2to0/1 0/1to0/0 0/0to1/0 1/0to0/0"/>
    </vehicle>
    <vehicle id="209" depart="10.45">
        <route edges="3/0to2/0 2/0to1/0 1/0to0/0 0/0to0/1 0/1to0/2 0/2to0/3 0/3to1/3"/>
    </vehicle>
    <vehicle id="210" depart="10.50">
        <route edges="2/0to3/0 3/0to3/1 3/1to3/2 3/2to2/2"/>
    </vehicle>
    <vehicle id="211" depart="10.55">
        <route edges="3/2to2/2 2/2to1/2 1/2to1/1 1/1to1/0"/>
    </vehicle>
    <vehicle id="212" depart="10.60">
        <route edges="2/3to1/3 1/3to1/2 1/2to1/1 1/1to1/2"/>
    </vehicle>
    <vehicle id="213" depart="10.65">
        <route edges="2/1to2/0 2/0to1/0 1/0to0/0 0/0to0/1 0/1to0/2"/>
    </vehicle>
    <vehicle id="214" depart="10.70">
        <route edges="3/1to3/0 3/0to3/1 3/1to3/2 3/2to2/2"/>
    </vehicle>
    <vehicle id="215" depart="10.75">
        <route edges="2/2to2/3 2/3to2/2 2/2to2/1 2/1to2/0 2/0to2/1"/>
    </vehicle>
    <vehicle id="216" depart="10.80">
        <route edges="2/3to2/2 2/2to2/3 2/3to3/3 3/3to2/3"/>
    </vehicle>
    <vehicle id="217" depart="10.85">
        <route edges="3/2to3/3 3/3to2/3 2/3to2/2 2/2to2/1 2/1to2/0 2/0to2/1"/>
    </vehicle>
    <vehicle id="218" depart="10.90">
        <route edges="2/1to3/1 3/1to2/1 2/1to2/2 2/2to2/3 2/3to1/3"/>
    </vehicle>
    <vehicle id="219" depart="10.95">
        <route edges="2/2to3/2 3/2to2/2 2/2to1/2 1/2to1/1 1/1to2/1"/>
    </vehicle>
    <vehicle id="220" depart="11.00">
        <route edges="3/1to2/1 2/1to1/1 1/1to1/2 1/2to0/2"/>
    </vehicle>
    <vehicle id="221" depart="11.05">
        <route edges="3/2to2/2 2/2to1/2 1/2to0/2 0/2to0/1 0/1to1/1"/>
    </vehicle>
    <vehicle id="222" depart="11.10">
        <route edges="2/1to3/1 3/1to2/1 2/1to2/0"/>
    </vehicle>
    <vehicle id="223" depart="11.15">
        <route edges="2/1to3/1 3/1to3/2"/>
    </vehicle>
    <vehicle id="224" depart="11.20">
        <route edges="1/2to1/1 1/1to1/2 1/2to2/2"/>
    </vehicle>
    <vehicle id="225" depart="11.25">
        <route edges="2/2to3/2 3/2to3/1"/>
    </vehicle>
    <vehicle id="226" depart="11.30">
        <route edges="2/0to2/1 2/1to2/2 2/2to2/3 2/3to2/2"/>
    </vehicle>
    <vehicle id="227" depart="11.35">
        <route edges="2/2to2/3 2/3to1/3 1/3to1/2 1/2to1/1 1/1to1/0"/>
    </vehicle>
    <vehicle id="228" depart="11.40">
        <route edges="3/0to2/0 2/0to1/0 1/0to1/1 1/1to1/2 1/2to1/3 1/3to1/2"/>
    </vehicle>
    <vehicle id="229" depart="11.45">
        <route edges="3/1to3/0 3/0to3/1 3/1to3/2 3/2to3/3 3/3to3/2"/>
    </vehicle>
    <vehicle id="230" depart="11.50">
        <route edges="1/3to0/3 0/3to0/2 0/2to0/1 0/1to1/1 1/1to2/1 2/1to3/1 3/1to3/0"/>
    </vehicle>
    <vehicle id="231" depart="11.55">
        <route edges="3/2to3/1 3/1to2/1 2/1to2/2"/>
    </vehicle>
    <vehicle id="232" depart="11.60">
        <route edges="3/2to3/3 3/3to2/3 2/3to1/3 1/3to1/2 1/2to0/2"/>
    </vehicle>
    <vehicle id="233" depart="11.65">
        <route edges="0/1to0/0 0/0to0/1 0/1to0/2 0/2to0/3 0/3to1/3 1/3to2/3"/>
    </vehicle>
    <vehicle id="234" depart="11.70">
        <route edges="1/2to1/3 1/3to1/2 1/2to1/1 1/1to1/0 1/0to2/0 2/0to2/1"/>
    </vehicle>
    <vehicle id="235" depart="11.75">
        <route edges="1/0to0/0 0/0to0/1 0/1to0/2 0/2to0/3 0/3to1/3 1/3to1/2"/>
    </vehicle>
    <vehicle id="236" depart="11.80">
        <route edges="2/3to2/2 2/2to1/2 1/2to1/1 1/1to0/1"/>
    </vehicle>
    <vehicle id="237" depart="11.85">
        <route edges="2/2to2/3 2/3to2/2 2/2to3/2 3/2to2/2"/>
    </vehicle>
    <vehicle id="238" depart="11.90">
        <route edges="3/2to2/2 2/2to1/2 1/2to0/2 0/2to0/1 0/1to0/0 0/0to0/1"/>
    </vehicle>
    <vehicle id="239" depart="11.95">
        <route edges="2/2to2/3 2/3to1/3 1/3to0/3 0/3to0/2 0/2to0/1 0/1to0/0 0/0to1/0"/>
    </vehicle>
    <vehicle id="240" depart="12.00">
        <route edges="3/3to2/3 2/3to1/3 1/3to1/2 1/2to1/1"/>
    </vehicle>
    <vehicle id="241" depart="12.05">
        <route edges="2/2to2/1 2/1to1/1 1/1to0/1"/>
    </vehicle>
    <vehicle id="242" depart="12.10">
        <route edges="0/2to0/3 0/3to0/2 0/2to1/2 1/2to1/1"/>
    </vehicle>
    <vehicle id="243" depart="12.15">
        <route edges="2/1to2/0 2/0to2/1 2/1to2/2 2/2to2/3 2/3to1/3"/>
    </vehicle>
    <vehicle id="244" depart="12.20">
        <route edges="2/1to1/1 1/1to0/1 0/1to0/2"/>
    </vehicle>
    <vehicle id="245" depart="12.25">
        <route edges="3/1to3/2 3/2to2/2 2/2to1/2 1/2to1/1 1/1to1/2"/>
    </vehicle>
    <vehicle id="246" depart="12.30">
        <route edges="2/1to2/0 2/0to1/0 1/0to1/1 1/1to1/2 1/2to1/3 1/3to2/3"/>
    </vehicle>
    <vehicle id="247" depart="12.35">
        <route edges="1/3to1/2 1/2to1/1 1/1to2/1 2/1to2/0"/>
    </vehicle>
    <vehicle id="248" depart="12.40">
        <route edges="2/3to1/3 1/3to1/2 1/2to1/1 1/1to1/0"/>
    </vehicle>
    <vehicle id="249" depart="12.45">
        <route edges="1/0to2/0 2/0to3/0 3/0to2/0"/>
    </vehicle>
    <vehicle id="250" depart="12.50">
        <route edges="2/1to2/0 2/0to1/0 1/0to0/0 0/0to0/1 0/1to0/2 0/2to0/1"/>
    </vehicle>
    <vehicle id="251" depart="12.55">
        <route edges="1/3to0/3 0/3to0/2 0/2to1/2 1/2to2/2 2/2to3/2"/>
    </vehicle>
    <vehicle id="252" depart="12.60">
        <route edges="0/3to1/3 1/3to1/2 1/2to1/1 1/1to0/1"/>
    </vehicle>
    <vehicle id="253" depart="12.65">
        <route edges="2/1to3/1 3/1to2/1 2/1to1/1 1/1to0/1 0/1to1/1"/>
    </vehicle>
    <vehicle id="254" depart="12.70">
        <route edges="1/0to1/1 1/1to1/0 1/0to2/0 2/0to3/0 3/0to3/1"/>
    </vehicle>
    <vehicle id="255" depart="12.75">
        <route edges="2/1to2/2 2/2to2/1 2/1to3/1 3/1to3/2"/>
    </vehicle>
    <vehicle id="256" depart="12.80">