<?xml version="1.0" encoding="UTF-8"?>

<!-- generated on 04/05/17 12:22:16 by SUMO duarouter Version 0.24.0
<?xml version="1.0" encoding="UTF-8"?>

<configuration xmlns:xsi="http://www.w3.org/2001/XMLSchema-instance" xsi:noNamespaceSchemaLocation="http://sumo.dlr.de/xsd/duarouterConfiguration.xsd">

    <input>
        <net-file value="D:\Documents\Desktop\experiment\400car_8flow\net.xml"/>
        <flow-files value="D:\Documents\Desktop\experiment\400car_8flow\input.flow.xml"/>
    </input>

    <output>
        <output-file value="D:\Documents\Desktop\experiment\400car_8flow\rou.xml"/>
    </output>

</configuration>
-->
<routes xmlns:xsi="http://www.w3.org/2001/XMLSchema-instance" xsi:noNamespaceSchemaLocation="http://sumo.dlr.de/xsd/routes_file.xsd">
    <vType id="myType" maxSpeed="10.00"/>
    <vehicle id="0" type="myType" depart="0.00">
        <route edges="edge-11-8 edge-8-4 edge-4-5 edge-5-2"/>
    </vehicle>
    <vehicle id="50" type="myType" depart="0.00">
        <route edges="edge-2-5 edge-5-9 edge-9-8 edge-8-11"/>
    </vehicle>
    <vehicle id="100" type="myType" depart="0.00">
        <route edges="edge-12-9 edge-9-5 edge-5-4 edge-4-1"/>
    </vehicle>
    <vehicle id="150" type="myType" depart="0.00">
        <route edges="edge-1-4 edge-4-8 edge-8-9 edge-9-12"/>
    </vehicle>
    <vehicle id="200" type="myType" depart="0.00">
        <route edges="edge-10-9 edge-9-8 edge-8-4 edge-4-3"/>
    </vehicle>
    <vehicle id="250" type="myType" depart="0.00">
        <route edges="edge-3-4 edge-4-5 edge-5-9 edge-9-10"/>
    </vehicle>
    <vehicle id="300" type="myType" depart="0.00">
        <route edges="edge-6-5 edge-5-4 edge-4-8 edge-8-7"/>
    </vehicle>
    <vehicle id="350" type="myType" depart="0.00">
        <route edges="edge-7-8 edge-8-9 edge-9-5 edge-5-6"/>
    </vehicle>
    <vehicle id="1" type="myType" depart="10.00">
        <route edges="edge-11-8 edge-8-4 edge-4-5 edge-5-2"/>
    </vehicle>
    <vehicle id="51" type="myType" depart="10.00">
        <route edges="edge-2-5 edge-5-9 edge-9-8 edge-8-11"/>
    </vehicle>
    <vehicle id="101" type="myType" depart="10.00">
        <route edges="edge-12-9 edge-9-5 edge-5-4 edge-4-1"/>
    </vehicle>
    <vehicle id="151" type="myType" depart="10.00">
        <route edges="edge-1-4 edge-4-8 edge-8-9 edge-9-12"/>
    </vehicle>
    <vehicle id="201" type="myType" depart="10.00">
        <route edges="edge-10-9 edge-9-8 edge-8-4 edge-4-3"/>
    </vehicle>
    <vehicle id="251" type="myType" depart="10.00">
        <route edges="edge-3-4 edge-4-5 edge-5-9 edge-9-10"/>
    </vehicle>
    <vehicle id="301" type="myType" depart="10.00">
        <route edges="edge-6-5 edge-5-4 edge-4-8 edge-8-7"/>
    </vehicle>
    <vehicle id="351" type="myType" depart="10.00">
        <route edges="edge-7-8 edge-8-9 edge-9-5 edge-5-6"/>
    </vehicle>
    <vehicle id="2" type="myType" depart="20.00">
        <route edges="edge-11-8 edge-8-4 edge-4-5 edge-5-2"/>
    </vehicle>
    <vehicle id="52" type="myType" depart="20.00">
        <route edges="edge-2-5 edge-5-9 edge-9-8 edge-8-11"/>
    </vehicle>
    <vehicle id="102" type="myType" depart="20.00">
        <route edges="edge-12-9 edge-9-5 edge-5-4 edge-4-1"/>
    </vehicle>
    <vehicle id="152" type="myType" depart="20.00">
        <route edges="edge-1-4 edge-4-8 edge-8-9 edge-9-12"/>
    </vehicle>
    <vehicle id="202" type="myType" depart="20.00">
        <route edges="edge-10-9 edge-9-8 edge-8-4 edge-4-3"/>
    </vehicle>
    <vehicle id="252" type="myType" depart="20.00">
        <route edges="edge-3-4 edge-4-5 edge-5-9 edge-9-10"/>
    </vehicle>
    <vehicle id="302" type="myType" depart="20.00">
        <route edges="edge-6-5 edge-5-4 edge-4-8 edge-8-7"/>
    </vehicle>
    <vehicle id="352" type="myType" depart="20.00">
        <route edges="edge-7-8 edge-8-9 edge-9-5 edge-5-6"/>
    </vehicle>
    <vehicle id="3" type="myType" depart="30.00">
        <route edges="edge-11-8 edge-8-4 edge-4-5 edge-5-2"/>
    </vehicle>
    <vehicle id="53" type="myType" depart="30.00">
        <route edges="edge-2-5 edge-5-9 edge-9-8 edge-8-11"/>
    </vehicle>
    <vehicle id="103" type="myType" depart="30.00">
        <route edges="edge-12-9 edge-9-5 edge-5-4 edge-4-1"/>
    </vehicle>
    <vehicle id="153" type="myType" depart="30.00">
        <route edges="edge-1-4 edge-4-8 edge-8-9 edge-9-12"/>
    </vehicle>
    <vehicle id="203" type="myType" depart="30.00">
        <route edges="edge-10-9 edge-9-8 edge-8-4 edge-4-3"/>
    </vehicle>
    <vehicle id="253" type="myType" depart="30.00">
        <route edges="edge-3-4 edge-4-5 edge-5-9 edge-9-10"/>
    </vehicle>
    <vehicle id="303" type="myType" depart="30.00">
        <route edges="edge-6-5 edge-5-4 edge-4-8 edge-8-7"/>
    </vehicle>
    <vehicle id="353" type="myType" depart="30.00">
        <route edges="edge-7-8 edge-8-9 edge-9-5 edge-5-6"/>
    </vehicle>
    <vehicle id="4" type="myType" depart="40.00">
        <route edges="edge-11-8 edge-8-4 edge-4-5 edge-5-2"/>
    </vehicle>
    <vehicle id="54" type="myType" depart="40.00">
        <route edges="edge-2-5 edge-5-9 edge-9-8 edge-8-11"/>
    </vehicle>
    <vehicle id="104" type="myType" depart="40.00">
        <route edges="edge-12-9 edge-9-5 edge-5-4 edge-4-1"/>
    </vehicle>
    <vehicle id="154" type="myType" depart="40.00">
        <route edges="edge-1-4 edge-4-8 edge-8-9 edge-9-12"/>
    </vehicle>
    <vehicle id="204" type="myType" depart="40.00">
        <route edges="edge-10-9 edge-9-8 edge-8-4 edge-4-3"/>
    </vehicle>
    <vehicle id="254" type="myType" depart="40.00">
        <route edges="edge-3-4 edge-4-5 edge-5-9 edge-9-10"/>
    </vehicle>
    <vehicle id="304" type="myType" depart="40.00">
        <route edges="edge-6-5 edge-5-4 edge-4-8 edge-8-7"/>
    </vehicle>
    <vehicle id="354" type="myType" depart="40.00">
        <route edges="edge-7-8 edge-8-9 edge-9-5 edge-5-6"/>
    </vehicle>
    <vehicle id="5" type="myType" depart="50.00">
        <route edges="edge-11-8 edge-8-4 edge-4-5 edge-5-2"/>
    </vehicle>
    <vehicle id="55" type="myType" depart="50.00">
        <route edges="edge-2-5 edge-5-9 edge-9-8 edge-8-11"/>
    </vehicle>
    <vehicle id="105" type="myType" depart="50.00">
        <route edges="edge-12-9 edge-9-5 edge-5-4 edge-4-1"/>
    </vehicle>
    <vehicle id="155" type="myType" depart="50.00">
        <route edges="edge-1-4 edge-4-8 edge-8-9 edge-9-12"/>
    </vehicle>
    <vehicle id="205" type="myType" depart="50.00">
        <route edges="edge-10-9 edge-9-8 edge-8-4 edge-4-3"/>
    </vehicle>
    <vehicle id="255" type="myType" depart="50.00">
        <route edges="edge-3-4 edge-4-5 edge-5-9 edge-9-10"/>
    </vehicle>
    <vehicle id="305" type="myType" depart="50.00">
        <route edges="edge-6-5 edge-5-4 edge-4-8 edge-8-7"/>
    </vehicle>
    <vehicle id="355" type="myType" depart="50.00">
        <route edges="edge-7-8 edge-8-9 edge-9-5 edge-5-6"/>
    </vehicle>
    <vehicle id="6" type="myType" depart="60.00">
        <route edges="edge-11-8 edge-8-4 edge-4-5 edge-5-2"/>
    </vehicle>
    <vehicle id="56" type="myType" depart="60.00">
        <route edges="edge-2-5 edge-5-9 edge-9-8 edge-8-11"/>
    </vehicle>
    <vehicle id="106" type="myType" depart="60.00">
        <route edges="edge-12-9 edge-9-5 edge-5-4 edge-4-1"/>
    </vehicle>
    <vehicle id="156" type="myType" depart="60.00">
        <route edges="edge-1-4 edge-4-8 edge-8-9 edge-9-12"/>
    </vehicle>
    <vehicle id="206" type="myType" depart="60.00">
        <route edges="edge-10-9 edge-9-8 edge-8-4 edge-4-3"/>
    </vehicle>
    <vehicle id="256" type="myType" depart="60.00">
        <route edges="edge-3-4 edge-4-5 edge-5-9 edge-9-10"/>
    </vehicle>
    <vehicle id="306" type="myType" depart="60.00">
        <route edges="edge-6-5 edge-5-4 edge-4-8 edge-8-7"/>
    </vehicle>
    <vehicle id="356" type="myType" depart="60.00">
        <route edges="edge-7-8 edge-8-9 edge-9-5 edge-5-6"/>
    </vehicle>
    <vehicle id="7" type="myType" depart="70.00">
        <route edges="edge-11-8 edge-8-4 edge-4-5 edge-5-2"/>
    </vehicle>
    <vehicle id="57" type="myType" depart="70.00">
        <route edges="edge-2-5 edge-5-9 edge-9-8 edge-8-11"/>
    </vehicle>
    <vehicle id="107" type="myType" depart="70.00">
        <route edges="edge-12-9 edge-9-5 edge-5-4 edge-4-1"/>
    </vehicle>
    <vehicle id="157" type="myType" depart="70.00">
        <route edges="edge-1-4 edge-4-8 edge-8-9 edge-9-12"/>
    </vehicle>
    <vehicle id="207" type="myType" depart="70.00">
        <route edges="edge-10-9 edge-9-8 edge-8-4 edge-4-3"/>
    </vehicle>
    <vehicle id="257" type="myType" depart="70.00">
        <route edges="edge-3-4 edge-4-5 edge-5-9 edge-9-10"/>
    </vehicle>
    <vehicle id="307" type="myType" depart="70.00">
        <route edges="edge-6-5 edge-5-4 edge-4-8 edge-8-7"/>
    </vehicle>
    <vehicle id="357" type="myType" depart="70.00">
        <route edges="edge-7-8 edge-8-9 edge-9-5 edge-5-6"/>
    </vehicle>
    <vehicle id="8" type="myType" depart="80.00">
        <route edges="edge-11-8 edge-8-4 edge-4-5 edge-5-2"/>
    </vehicle>
    <vehicle id="58" type="myType" depart="80.00">
        <route edges="edge-2-5 edge-5-9 edge-9-8 edge-8-11"/>
    </vehicle>
    <vehicle id="108" type="myType" depart="80.00">
        <route edges="edge-12-9 edge-9-5 edge-5-4 edge-4-1"/>
    </vehicle>
    <vehicle id="158" type="myType" depart="80.00">
        <route edges="edge-1-4 edge-4-8 edge-8-9 edge-9-12"/>
    </vehicle>
    <vehicle id="208" type="myType" depart="80.00">
        <route edges="edge-10-9 edge-9-8 edge-8-4 edge-4-3"/>
    </vehicle>
    <vehicle id="258" type="myType" depart="80.00">
        <route edges="edge-3-4 edge-4-5 edge-5-9 edge-9-10"/>
    </vehicle>
    <vehicle id="308" type="myType" depart="80.00">
        <route edges="edge-6-5 edge-5-4 edge-4-8 edge-8-7"/>
    </vehicle>
    <vehicle id="358" type="myType" depart="80.00">
        <route edges="edge-7-8 edge-8-9 edge-9-5 edge-5-6"/>
    </vehicle>
    <vehicle id="9" type="myType" depart="90.00">
        <route edges="edge-11-8 edge-8-4 edge-4-5 edge-5-2"/>
    </vehicle>
    <vehicle id="59" type="myType" depart="90.00">
        <route edges="edge-2-5 edge-5-9 edge-9-8 edge-8-11"/>
    </vehicle>
    <vehicle id="109" type="myType" depart="90.00">
        <route edges="edge-12-9 edge-9-5 edge-5-4 edge-4-1"/>
    </vehicle>
    <vehicle id="159" type="myType" depart="90.00">
        <route edges="edge-1-4 edge-4-8 edge-8-9 edge-9-12"/>
    </vehicle>
    <vehicle id="209" type="myType" depart="90.00">
        <route edges="edge-10-9 edge-9-8 edge-8-4 edge-4-3"/>
    </vehicle>
    <vehicle id="259" type="myType" depart="90.00">
        <route edges="edge-3-4 edge-4-5 edge-5-9 edge-9-10"/>
    </vehicle>
    <vehicle id="309" type="myType" depart="90.00">
        <route edges="edge-6-5 edge-5-4 edge-4-8 edge-8-7"/>
    </vehicle>
    <vehicle id="359" type="myType" depart="90.00">
        <route edges="edge-7-8 edge-8-9 edge-9-5 edge-5-6"/>
    </vehicle>
    <vehicle id="10" type="myType" depart="100.00">
        <route edges="edge-11-8 edge-8-4 edge-4-5 edge-5-2"/>
    </vehicle>
    <vehicle id="60" type="myType" depart="100.00">
        <route edges="edge-2-5 edge-5-9 edge-9-8 edge-8-11"/>
    </vehicle>
    <vehicle id="110" type="myType" depart="100.00">
        <route edges="edge-12-9 edge-9-5 edge-5-4 edge-4-1"/>
    </vehicle>
    <vehicle id="160" type="myType" depart="100.00">
        <route edges="edge-1-4 edge-4-8 edge-8-9 edge-9-12"/>
    </vehicle>
    <vehicle id="210" type="myType" depart="100.00">
        <route edges="edge-10-9 edge-9-8 edge-8-4 edge-4-3"/>
    </vehicle>
    <vehicle id="260" type="myType" depart="100.00">
        <route edges="edge-3-4 edge-4-5 edge-5-9 edge-9-10"/>
    </vehicle>
    <vehicle id="310" type="myType" depart="100.00">
        <route edges="edge-6-5 edge-5-4 edge-4-8 edge-8-7"/>
    </vehicle>
    <vehicle id="360" type="myType" depart="100.00">
        <route edges="edge-7-8 edge-8-9 edge-9-5 edge-5-6"/>
    </vehicle>
    <vehicle id="11" type="myType" depart="110.00">
        <route edges="edge-11-8 edge-8-4 edge-4-5 edge-5-2"/>
    </vehicle>
    <vehicle id="61" type="myType" depart="110.00">
        <route edges="edge-2-5 edge-5-9 edge-9-8 edge-8-11"/>
    </vehicle>
    <vehicle id="111" type="myType" depart="110.00">
        <route edges="edge-12-9 edge-9-5 edge-5-4 edge-4-1"/>
    </vehicle>
    <vehicle id="161" type="myType" depart="110.00">
        <route edges="edge-1-4 edge-4-8 edge-8-9 edge-9-12"/>
    </vehicle>
    <vehicle id="211" type="myType" depart="110.00">
        <route edges="edge-10-9 edge-9-8 edge-8-4 edge-4-3"/>
    </vehicle>
    <vehicle id="261" type="myType" depart="110.00">
        <route edges="edge-3-4 edge-4-5 edge-5-9 edge-9-10"/>
    </vehicle>
    <vehicle id="311" type="myType" depart="110.00">
        <route edges="edge-6-5 edge-5-4 edge-4-8 edge-8-7"/>
    </vehicle>
    <vehicle id="361" type="myType" depart="110.00">
        <route edges="edge-7-8 edge-8-9 edge-9-5 edge-5-6"/>
    </vehicle>
    <vehicle id="12" type="myType" depart="120.00">
        <route edges="edge-11-8 edge-8-4 edge-4-5 edge-5-2"/>
    </vehicle>
    <vehicle id="62" type="myType" depart="120.00">
        <route edges="edge-2-5 edge-5-9 edge-9-8 edge-8-11"/>
    </vehicle>
    <vehicle id="112" type="myType" depart="120.00">
        <route edges="edge-12-9 edge-9-5 edge-5-4 edge-4-1"/>
    </vehicle>
    <vehicle id="162" type="myType" depart="120.00">
        <route edges="edge-1-4 edge-4-8 edge-8-9 edge-9-12"/>
    </vehicle>
    <vehicle id="212" type="myType" depart="120.00">
        <route edges="edge-10-9 edge-9-8 edge-8-4 edge-4-3"/>
    </vehicle>
    <vehicle id="262" type="myType" depart="120.00">
        <route edges="edge-3-4 edge-4-5 edge-5-9 edge-9-10"/>
    </vehicle>
    <vehicle id="312" type="myType" depart="120.00">
        <route edges="edge-6-5 edge-5-4 edge-4-8 edge-8-7"/>
    </vehicle>
    <vehicle id="362" type="myType" depart="120.00">
        <route edges="edge-7-8 edge-8-9 edge-9-5 edge-5-6"/>
    </vehicle>
    <vehicle id="13" type="myType" depart="130.00">
        <route edges="edge-11-8 edge-8-4 edge-4-5 edge-5-2"/>
    </vehicle>
    <vehicle id="63" type="myType" depart="130.00">
        <route edges="edge-2-5 edge-5-9 edge-9-8 edge-8-11"/>
    </vehicle>
    <vehicle id="113" type="myType" depart="130.00">
        <route edges="edge-12-9 edge-9-5 edge-5-4 edge-4-1"/>
    </vehicle>
    <vehicle id="163" type="myType" depart="130.00">
        <route edges="edge-1-4 edge-4-8 edge-8-9 edge-9-12"/>
    </vehicle>
    <vehicle id="213" type="myType" depart="130.00">
        <route edges="edge-10-9 edge-9-8 edge-8-4 edge-4-3"/>
    </vehicle>
    <vehicle id="263" type="myType" depart="130.00">
        <route edges="edge-3-4 edge-4-5 edge-5-9 edge-9-10"/>
    </vehicle>
    <vehicle id="313" type="myType" depart="130.00">
        <route edges="edge-6-5 edge-5-4 edge-4-8 edge-8-7"/>
    </vehicle>
    <vehicle id="363" type="myType" depart="130.00">
        <route edges="edge-7-8 edge-8-9 edge-9-5 edge-5-6"/>
    </vehicle>
    <vehicle id="14" type="myType" depart="140.00">
        <route edges="edge-11-8 edge-8-4 edge-4-5 edge-5-2"/>
    </vehicle>
    <vehicle id="64" type="myType" depart="140.00">
        <route edges="edge-2-5 edge-5-9 edge-9-8 edge-8-11"/>
    </vehicle>
    <vehicle id="114" type="myType" depart="140.00">
        <route edges="edge-12-9 edge-9-5 edge-5-4 edge-4-1"/>
    </vehicle>
    <vehicle id="164" type="myType" depart="140.00">
        <route edges="edge-1-4 edge-4-8 edge-8-9 edge-9-12"/>
    </vehicle>
    <vehicle id="214" type="myType" depart="140.00">
        <route edges="edge-10-9 edge-9-8 edge-8-4 edge-4-3"/>
    </vehicle>
    <vehicle id="264" type="myType" depart="140.00">
        <route edges="edge-3-4 edge-4-5 edge-5-9 edge-9-10"/>
    </vehicle>
    <vehicle id="314" type="myType" depart="140.00">
        <route edges="edge-6-5 edge-5-4 edge-4-8 edge-8-7"/>
    </vehicle>
    <vehicle id="364" type="myType" depart="140.00">
        <route edges="edge-7-8 edge-8-9 edge-9-5 edge-5-6"/>
    </vehicle>
    <vehicle id="15" type="myType" depart="150.00">
        <route edges="edge-11-8 edge-8-4 edge-4-5 edge-5-2"/>
    </vehicle>
    <vehicle id="65" type="myType" depart="150.00">
        <route edges="edge-2-5 edge-5-9 edge-9-8 edge-8-11"/>
    </vehicle>
    <vehicle id="115" type="myType" depart="150.00">
        <route edges="edge-12-9 edge-9-5 edge-5-4 edge-4-1"/>
    </vehicle>
    <vehicle id="165" type="myType" depart="150.00">
        <route edges="edge-1-4 edge-4-8 edge-8-9 edge-9-12"/>
    </vehicle>
    <vehicle id="215" type="myType" depart="150.00">
        <route edges="edge-10-9 edge-9-8 edge-8-4 edge-4-3"/>
    </vehicle>
    <vehicle id="265" type="myType" depart="150.00">
        <route edges="edge-3-4 edge-4-5 edge-5-9 edge-9-10"/>
    </vehicle>
    <vehicle id="315" type="myType" depart="150.00">
        <route edges="edge-6-5 edge-5-4 edge-4-8 edge-8-7"/>
    </vehicle>
    <vehicle id="365" type="myType" depart="150.00">
        <route edges="edge-7-8 edge-8-9 edge-9-5 edge-5-6"/>
    </vehicle>
    <vehicle id="16" type="myType" depart="160.00">
        <route edges="edge-11-8 edge-8-4 edge-4-5 edge-5-2"/>
    </vehicle>
    <vehicle id="66" type="myType" depart="160.00">
        <route edges="edge-2-5 edge-5-9 edge-9-8 edge-8-11"/>
    </vehicle>
    <vehicle id="116" type="myType" depart="160.00">
        <route edges="edge-12-9 edge-9-5 edge-5-4 edge-4-1"/>
    </vehicle>
    <vehicle id="166" type="myType" depart="160.00">
        <route edges="edge-1-4 edge-4-8 edge-8-9 edge-9-12"/>
    </vehicle>
    <vehicle id="216" type="myType" depart="160.00">
        <route edges="edge-10-9 edge-9-8 edge-8-4 edge-4-3"/>
    </vehicle>
    <vehicle id="266" type="myType" depart="160.00">
        <route edges="edge-3-4 edge-4-5 edge-5-9 edge-9-10"/>
    </vehicle>
    <vehicle id="316" type="myType" depart="160.00">
        <route edges="edge-6-5 edge-5-4 edge-4-8 edge-8-7"/>
    </vehicle>
    <vehicle id="366" type="myType" depart="160.00">
        <route edges="edge-7-8 edge-8-9 edge-9-5 edge-5-6"/>
    </vehicle>
    <vehicle id="17" type="myType" depart="170.00">
        <route edges="edge-11-8 edge-8-4 edge-4-5 edge-5-2"/>
    </vehicle>
    <vehicle id="67" type="myType" depart="170.00">
        <route edges="edge-2-5 edge-5-9 edge-9-8 edge-8-11"/>
    </vehicle>
    <vehicle id="117" type="myType" depart="170.00">
        <route edges="edge-12-9 edge-9-5 edge-5-4 edge-4-1"/>
    </vehicle>
    <vehicle id="167" type="myType" depart="170.00">
        <route edges="edge-1-4 edge-4-8 edge-8-9 edge-9-12"/>
    </vehicle>
    <vehicle id="217" type="myType" depart="170.00">
        <route edges="edge-10-9 edge-9-8 edge-8-4 edge-4-3"/>
    </vehicle>
    <vehicle id="267" type="myType" depart="170.00">
        <route edges="edge-3-4 edge-4-5 edge-5-9 edge-9-10"/>
    </vehicle>
    <vehicle id="317" type="myType" depart="170.00">
        <route edges="edge-6-5 edge-5-4 edge-4-8 edge-8-7"/>
    </vehicle>
    <vehicle id="367" type="myType" depart="170.00">
        <route edges="edge-7-8 edge-8-9 edge-9-5 edge-5-6"/>
    </vehicle>
    <vehicle id="18" type="myType" depart="180.00">
        <route edges="edge-11-8 edge-8-4 edge-4-5 edge-5-2"/>
    </vehicle>
    <vehicle id="68" type="myType" depart="180.00">
        <route edges="edge-2-5 edge-5-9 edge-9-8 edge-8-11"/>
    </vehicle>
    <vehicle id="118" type="myType" depart="180.00">
        <route edges="edge-12-9 edge-9-5 edge-5-4 edge-4-1"/>
    </vehicle>
    <vehicle id="168" type="myType" depart="180.00">
        <route edges="edge-1-4 edge-4-8 edge-8-9 edge-9-12"/>
    </vehicle>
    <vehicle id="218" type="myType" depart="180.00">
        <route edges="edge-10-9 edge-9-8 edge-8-4 edge-4-3"/>
    </vehicle>
    <vehicle id="268" type="myType" depart="180.00">
        <route edges="edge-3-4 edge-4-5 edge-5-9 edge-9-10"/>
    </vehicle>
    <vehicle id="318" type="myType" depart="180.00">
        <route edges="edge-6-5 edge-5-4 edge-4-8 edge-8-7"/>
    </vehicle>
    <vehicle id="368" type="myType" depart="180.00">
        <route edges="edge-7-8 edge-8-9 edge-9-5 edge-5-6"/>
    </vehicle>
    <vehicle id="19" type="myType" depart="190.00">
        <route edges="edge-11-8 edge-8-4 edge-4-5 edge-5-2"/>
    </vehicle>
    <vehicle id="69" type="myType" depart="190.00">
        <route edges="edge-2-5 edge-5-9 edge-9-8 edge-8-11"/>
    </vehicle>
    <vehicle id="119" type="myType" depart="190.00">
        <route edges="edge-12-9 edge-9-5 edge-5-4 edge-4-1"/>
    </vehicle>
    <vehicle id="169" type="myType" depart="190.00">
        <route edges="edge-1-4 edge-4-8 edge-8-9 edge-9-12"/>
    </vehicle>
    <vehicle id="219" type="myType" depart="190.00">
        <route edges="edge-10-9 edge-9-8 edge-8-4 edge-4-3"/>
    </vehicle>
    <vehicle id="269" type="myType" depart="190.00">
        <route edges="edge-3-4 edge-4-5 edge-5-9 edge-9-10"/>
    </vehicle>
    <vehicle id="319" type="myType" depart="190.00">
        <route edges="edge-6-5 edge-5-4 edge-4-8 edge-8-7"/>
    </vehicle>
    <vehicle id="369" type="myType" depart="190.00">
        <route edges="edge-7-8 edge-8-9 edge-9-5 edge-5-6"/>
    </vehicle>
    <vehicle id="20" type="myType" depart="200.00">
        <route edges="edge-11-8 edge-8-4 edge-4-5 edge-5-2"/>
    </vehicle>
    <vehicle id="70" type="myType" depart="200.00">
        <route edges="edge-2-5 edge-5-9 edge-9-8 edge-8-11"/>
    </vehicle>
    <vehicle id="120" type="myType" depart="200.00">
        <route edges="edge-12-9 edge-9-5 edge-5-4 edge-4-1"/>
    </vehicle>
    <vehicle id="170" type="myType" depart="200.00">
        <route edges="edge-1-4 edge-4-8 edge-8-9 edge-9-12"/>
    </vehicle>
    <vehicle id="220" type="myType" depart="200.00">
        <route edges="edge-10-9 edge-9-8 edge-8-4 edge-4-3"/>
    </vehicle>
    <vehicle id="270" type="myType" depart="200.00">
        <route edges="edge-3-4 edge-4-5 edge-5-9 edge-9-10"/>
    </vehicle>
    <vehicle id="320" type="myType" depart="200.00">
        <route edges="edge-6-5 edge-5-4 edge-4-8 edge-8-7"/>
    </vehicle>
    <vehicle id="370" type="myType" depart="200.00">
        <route edges="edge-7-8 edge-8-9 edge-9-5 edge-5-6"/>
    </vehicle>
    <vehicle id="21" type="myType" depart="210.00">
        <route edges="edge-11-8 edge-8-4 edge-4-5 edge-5-2"/>
    </vehicle>
    <vehicle id="71" type="myType" depart="210.00">
        <route edges="edge-2-5 edge-5-9 edge-9-8 edge-8-11"/>
    </vehicle>
    <vehicle id="121" type="myType" depart="210.00">
        <route edges="edge-12-9 edge-9-5 edge-5-4 edge-4-1"/>
    </vehicle>
    <vehicle id="171" type="myType" depart="210.00">
        <route edges="edge-1-4 edge-4-8 edge-8-9 edge-9-12"/>
    </vehicle>
    <vehicle id="221" type="myType" depart="210.00">
        <route edges="edge-10-9 edge-9-8 edge-8-4 edge-4-3"/>
    </vehicle>
    <vehicle id="271" type="myType" depart="210.00">
        <route edges="edge-3-4 edge-4-5 edge-5-9 edge-9-10"/>
    </vehicle>
    <vehicle id="321" type="myType" depart="210.00">
        <route edges="edge-6-5 edge-5-4 edge-4-8 edge-8-7"/>
    </vehicle>
    <vehicle id="371" type="myType" depart="210.00">
        <route edges="edge-7-8 edge-8-9 edge-9-5 edge-5-6"/>
    </vehicle>
    <vehicle id="22" type="myType" depart="220.00">
        <route edges="edge-11-8 edge-8-4 edge-4-5 edge-5-2"/>
    </vehicle>
    <vehicle id="72" type="myType" depart="220.00">
        <route edges="edge-2-5 edge-5-9 edge-9-8 edge-8-11"/>
    </vehicle>
    <vehicle id="122" type="myType" depart="220.00">
        <route edges="edge-12-9 edge-9-5 edge-5-4 edge-4-1"/>
    </vehicle>
    <vehicle id="172" type="myType" depart="220.00">
        <route edges="edge-1-4 edge-4-8 edge-8-9 edge-9-12"/>
    </vehicle>
    <vehicle id="222" type="myType" depart="220.00">
        <route edges="edge-10-9 edge-9-8 edge-8-4 edge-4-3"/>
    </vehicle>
    <vehicle id="272" type="myType" depart="220.00">
        <route edges="edge-3-4 edge-4-5 edge-5-9 edge-9-10"/>
    </vehicle>
    <vehicle id="322" type="myType" depart="220.00">
        <route edges="edge-6-5 edge-5-4 edge-4-8 edge-8-7"/>
    </vehicle>
    <vehicle id="372" type="myType" depart="220.00">
        <route edges="edge-7-8 edge-8-9 edge-9-5 edge-5-6"/>
    </vehicle>
    <vehicle id="23" type="myType" depart="230.00">
        <route edges="edge-11-8 edge-8-4 edge-4-5 edge-5-2"/>
    </vehicle>
    <vehicle id="73" type="myType" depart="230.00">
        <route edges="edge-2-5 edge-5-9 edge-9-8 edge-8-11"/>
    </vehicle>
    <vehicle id="123" type="myType" depart="230.00">
        <route edges="edge-12-9 edge-9-5 edge-5-4 edge-4-1"/>
    </vehicle>
    <vehicle id="173" type="myType" depart="230.00">
        <route edges="edge-1-4 edge-4-8 edge-8-9 edge-9-12"/>
    </vehicle>
    <vehicle id="223" type="myType" depart="230.00">
        <route edges="edge-10-9 edge-9-8 edge-8-4 edge-4-3"/>
    </vehicle>
    <vehicle id="273" type="myType" depart="230.00">
        <route edges="edge-3-4 edge-4-5 edge-5-9 edge-9-10"/>
    </vehicle>
    <vehicle id="323" type="myType" depart="230.00">
        <route edges="edge-6-5 edge-5-4 edge-4-8 edge-8-7"/>
    </vehicle>
    <vehicle id="373" type="myType" depart="230.00">
        <route edges="edge-7-8 edge-8-9 edge-9-5 edge-5-6"/>
    </vehicle>
    <vehicle id="24" type="myType" depart="240.00">
        <route edges="edge-11-8 edge-8-4 edge-4-5 edge-5-2"/>
    </vehicle>
    <vehicle id="74" type="myType" depart="240.00">
        <route edges="edge-2-5 edge-5-9 edge-9-8 edge-8-11"/>
    </vehicle>
    <vehicle id="124" type="myType" depart="240.00">
        <route edges="edge-12-9 edge-9-5 edge-5-4 edge-4-1"/>
    </vehicle>
    <vehicle id="174" type="myType" depart="240.00">
        <route edges="edge-1-4 edge-4-8 edge-8-9 edge-9-12"/>
    </vehicle>
    <vehicle id="224" type="myType" depart="240.00">
        <route edges="edge-10-9 edge-9-8 edge-8-4 edge-4-3"/>
    </vehicle>
    <vehicle id="274" type="myType" depart="240.00">
        <route edges="edge-3-4 edge-4-5 edge-5-9 edge-9-10"/>
    </vehicle>
    <vehicle id="324" type="myType" depart="240.00">
        <route edges="edge-6-5 edge-5-4 edge-4-8 edge-8-7"/>
    </vehicle>
    <vehicle id="374" type="myType" depart="240.00">
        <route edges="edge-7-8 edge-8-9 edge-9-5 edge-5-6"/>
    </vehicle>
    <vehicle id="25" type="myType" depart="250.00">
        <route edges="edge-11-8 edge-8-4 edge-4-5 edge-5-2"/>
    </vehicle>
    <vehicle id="75" type="myType" depart="250.00">
        <route edges="edge-2-5 edge-5-9 edge-9-8 edge-8-11"/>
    </vehicle>
    <vehicle id="125" type="myType" depart="250.00">
        <route edges="edge-12-9 edge-9-5 edge-5-4 edge-4-1"/>
    </vehicle>
    <vehicle id="175" type="myType" depart="250.00">
        <route edges="edge-1-4 edge-4-8 edge-8-9 edge-9-12"/>
    </vehicle>
    <vehicle id="225" type="myType" depart="250.00">
        <route edges="edge-10-9 edge-9-8 edge-8-4 edge-4-3"/>
    </vehicle>
    <vehicle id="275" type="myType" depart="250.00">
        <route edges="edge-3-4 edge-4-5 edge-5-9 edge-9-10"/>
    </vehicle>
    <vehicle id="325" type="myType" depart="250.00">
        <route edges="edge-6-5 edge-5-4 edge-4-8 edge-8-7"/>
    </vehicle>
    <vehicle id="375" type="myType" depart="250.00">
        <route edges="edge-7-8 edge-8-9 edge-9-5 edge-5-6"/>
    </vehicle>
    <vehicle id="26" type="myType" depart="260.00">
        <route edges="edge-11-8 edge-8-4 edge-4-5 edge-5-2"/>
    </vehicle>
    <vehicle id="76" type="myType" depart="260.00">
        <route edges="edge-2-5 edge-5-9 edge-9-8 edge-8-11"/>
    </vehicle>
    <vehicle id="126" type="myType" depart="260.00">
        <route edges="edge-12-9 edge-9-5 edge-5-4 edge-4-1"/>
    </vehicle>
    <vehicle id="176" type="myType" depart="260.00">
        <route edges="edge-1-4 edge-4-8 edge-8-9 edge-9-12"/>
    </vehicle>
    <vehicle id="226" type="myType" depart="260.00">
        <route edges="edge-10-9 edge-9-8 edge-8-4 edge-4-3"/>
    </vehicle>
    <vehicle id="276" type="myType" depart="260.00">
        <route edges="edge-3-4 edge-4-5 edge-5-9 edge-9-10"/>
    </vehicle>
    <vehicle id="326" type="myType" depart="260.00">
        <route edges="edge-6-5 edge-5-4 edge-4-8 edge-8-7"/>
    </vehicle>
    <vehicle id="376" type="myType" depart="260.00">
        <route edges="edge-7-8 edge-8-9 edge-9-5 edge-5-6"/>
    </vehicle>
    <vehicle id="27" type="myType" depart="270.00">
        <route edges="edge-11-8 edge-8-4 edge-4-5 edge-5-2"/>
    </vehicle>
    <vehicle id="77" type="myType" depart="270.00">
        <route edges="edge-2-5 edge-5-9 edge-9-8 edge-8-11"/>
    </vehicle>
    <vehicle id="127" type="myType" depart="270.00">
        <route edges="edge-12-9 edge-9-5 edge-5-4 edge-4-1"/>
    </vehicle>
    <vehicle id="177" type="myType" depart="270.00">
        <route edges="edge-1-4 edge-4-8 edge-8-9 edge-9-12"/>
    </vehicle>
    <vehicle id="227" type="myType" depart="270.00">
        <route edges="edge-10-9 edge-9-8 edge-8-4 edge-4-3"/>
    </vehicle>
    <vehicle id="277" type="myType" depart="270.00">
        <route edges="edge-3-4 edge-4-5 edge-5-9 edge-9-10"/>
    </vehicle>
    <vehicle id="327" type="myType" depart="270.00">
        <route edges="edge-6-5 edge-5-4 edge-4-8 edge-8-7"/>
    </vehicle>
    <vehicle id="377" type="myType" depart="270.00">
        <route edges="edge-7-8 edge-8-9 edge-9-5 edge-5-6"/>
    </vehicle>
    <vehicle id="28" type="myType" depart="280.00">
        <route edges="edge-11-8 edge-8-4 edge-4-5 edge-5-2"/>
    </vehicle>
    <vehicle id="78" type="myType" depart="280.00">
        <route edges="edge-2-5 edge-5-9 edge-9-8 edge-8-11"/>
    </vehicle>