<?xml version="1.0" encoding="UTF-8"?>

<!-- generated on 03/22/15 05:15:44 by SUMO netgenerate Version 0.17.1
<?xml version="1.0" encoding="UTF-8"?>

<configuration xmlns:xsi="http://www.w3.org/2001/XMLSchema-instance" xsi:noNamespaceSchemaLocation="http://sumo.sf.net/xsd/netgenerateConfiguration.xsd">

    <grid_network>
        <grid value="true"/>
        <grid.x-number value="4"/>
        <grid.y-number value="4"/>
        <grid.x-length value="175"/>
        <grid.y-length value="500"/>
    </grid_network>

    <output>
        <output-file value="input_net.net.xml"/>
    </output>

    <processing>
        <no-internal-links value="true"/>
    </processing>

    <building_defaults>
        <default.lanenumber value="4"/>
        <default.speed value="20"/>
    </building_defaults>

</configuration>
-->

<net version="0.13" xmlns:xsi="http://www.w3.org/2001/XMLSchema-instance" xsi:noNamespaceSchemaLocation="http://sumo.sf.net/xsd/net_file.xsd">

    <location netOffset="0.00,0.00" convBoundary="0.00,0.00,525.00,1500.00" origBoundary="0.00,0.00,525.00,1500.00" projParameter="!"/>

    <edge id="0/0to0/1" from="0/0" to="0/1" priority="-1">
        <lane id="0/0to0/1_0" index="0" speed="20.00" length="472.20" shape="11.55,13.15 11.55,485.35"/>
        <lane id="0/0to0/1_1" index="1" speed="20.00" length="472.20" shape="8.25,13.15 8.25,485.35"/>
        <lane id="0/0to0/1_2" index="2" speed="20.00" length="472.20" shape="4.95,13.15 4.95,485.35"/>
        <lane id="0/0to0/1_3" index="3" speed="20.00" length="472.20" shape="1.65,13.15 1.65,485.35"/>
    </edge>
    <edge id="0/0to1/0" from="0/0" to="1/0" priority="-1">
        <lane id="0/0to1/0_0" index="0" speed="20.00" length="147.20" shape="13.15,-11.55 160.35,-11.55"/>
        <lane id="0/0to1/0_1" index="1" speed="20.00" length="147.20" shape="13.15,-8.25 160.35,-8.25"/>
        <lane id="0/0to1/0_2" index="2" speed="20.00" length="147.20" shape="13.15,-4.95 160.35,-4.95"/>
        <lane id="0/0to1/0_3" index="3" speed="20.00" length="147.20" shape="13.15,-1.65 160.35,-1.65"/>
    </edge>
    <edge id="0/1to0/0" from="0/1" to="0/0" priority="-1">
        <lane id="0/1to0/0_0" index="0" speed="20.00" length="472.20" shape="-11.55,485.35 -11.55,13.15"/>
        <lane id="0/1to0/0_1" index="1" speed="20.00" length="472.20" shape="-8.25,485.35 -8.25,13.15"/>
        <lane id="0/1to0/0_2" index="2" speed="20.00" length="472.20" shape="-4.95,485.35 -4.95,13.15"/>
        <lane id="0/1to0/0_3" index="3" speed="20.00" length="472.20" shape="-1.65,485.35 -1.65,13.15"/>
    </edge>
    <edge id="0/1to0/2" from="0/1" to="0/2" priority="-1">
        <lane id="0/1to0/2_0" index="0" speed="20.00" length="470.70" shape="11.55,514.65 11.55,985.35"/>
        <lane id="0/1to0/2_1" index="1" speed="20.00" length="470.70" shape="8.25,514.65 8.25,985.35"/>
        <lane id="0/1to0/2_2" index="2" speed="20.00" length="470.70" shape="4.95,514.65 4.95,985.35"/>
        <lane id="0/1to0/2_3" index="3" speed="20.00" length="470.70" shape="1.65,514.65 1.65,985.35"/>
    </edge>
    <edge id="0/1to1/1" from="0/1" to="1/1" priority="-1">
        <lane id="0/1to1/1_0" index="0" speed="20.00" length="145.70" shape="14.65,488.45 160.35,488.45"/>
        <lane id="0/1to1/1_1" index="1" speed="20.00" length="145.70" shape="14.65,491.75 160.35,491.75"/>
        <lane id="0/1to1/1_2" index="2" speed="20.00" length="145.70" shape="14.65,495.05 160.35,495.05"/>
        <lane id="0/1to1/1_3" index="3" speed="20.00" length="145.70" shape="14.65,498.35 160.35,498.35"/>
    </edge>
    <edge id="0/2to0/1" from="0/2" to="0/1" priority="-1">
        <lane id="0/2to0/1_0" index="0" speed="20.00" length="470.70" shape="-11.55,985.35 -11.55,514.65"/>
        <lane id="0/2to0/1_1" index="1" speed="20.00" length="470.70" shape="-8.25,985.35 -8.25,514.65"/>
        <lane id="0/2to0/1_2" index="2" speed="20.00" length="470.70" shape="-4.95,985.35 -4.95,514.65"/>
        <lane id="0/2to0/1_3" index="3" speed="20.00" length="470.70" shape="-1.65,985.35 -1.65,514.65"/>
    </edge>
    <edge id="0/2to0/3" from="0/2" to="0/3" priority="-1">
        <lane id="0/2to0/3_0" index="0" speed="20.00" length="472.20" shape="11.55,1014.65 11.55,1486.85"/>
        <lane id="0/2to0/3_1" index="1" speed="20.00" length="472.20" shape="8.25,1014.65 8.25,1486.85"/>
        <lane id="0/2to0/3_2" index="2" speed="20.00" length="472.20" shape="4.95,1014.65 4.95,1486.85"/>
        <lane id="0/2to0/3_3" index="3" speed="20.00" length="472.20" shape="1.65,1014.65 1.65,1486.85"/>
    </edge>
    <edge id="0/2to1/2" from="0/2" to="1/2" priority="-1">
        <lane id="0/2to1/2_0" index="0" speed="20.00" length="145.70" shape="14.65,988.45 160.35,988.45"/>
        <lane id="0/2to1/2_1" index="1" speed="20.00" length="145.70" shape="14.65,991.75 160.35,991.75"/>
        <lane id="0/2to1/2_2" index="2" speed="20.00" length="145.70" shape="14.65,995.05 160.35,995.05"/>
        <lane id="0/2to1/2_3" index="3" speed="20.00" length="145.70" shape="14.65,998.35 160.35,998.35"/>
    </edge>
    <edge id="0/3to0/2" from="0/3" to="0/2" priority="-1">
        <lane id="0/3to0/2_0" index="0" speed="20.00" length="472.20" shape="-11.55,1486.85 -11.55,1014.65"/>
        <lane id="0/3to0/2_1" index="1" speed="20.00" length="472.20" shape="-8.25,1486.85 -8.25,1014.65"/>
        <lane id="0/3to0/2_2" index="2" speed="20.00" length="472.20" shape="-4.95,1486.85 -4.95,1014.65"/>
        <lane id="0/3to0/2_3" index="3" speed="20.00" length="472.20" shape="-1.65,1486.85 -1.65,1014.65"/>
    </edge>
    <edge id="0/3to1/3" from="0/3" to="1/3" priority="-1">
        <lane id="0/3to1/3_0" index="0" speed="20.00" length="147.20" shape="13.15,1488.45 160.35,1488.45"/>
        <lane id="0/3to1/3_1" index="1" speed="20.00" length="147.20" shape="13.15,1491.75 160.35,1491.75"/>
        <lane id="0/3to1/3_2" index="2" speed="20.00" length="147.20" shape="13.15,1495.05 160.35,1495.05"/>
        <lane id="0/3to1/3_3" index="3" speed="20.00" length="147.20" shape="13.15,1498.35 160.35,1498.35"/>
    </edge>
    <edge id="1/0to0/0" from="1/0" to="0/0" priority="-1">
        <lane id="1/0to0/0_0" index="0" speed="20.00" length="147.20" shape="160.35,11.55 13.15,11.55"/>
        <lane id="1/0to0/0_1" index="1" speed="20.00" length="147.20" shape="160.35,8.25 13.15,8.25"/>
        <lane id="1/0to0/0_2" index="2" speed="20.00" length="147.20" shape="160.35,4.95 13.15,4.95"/>
        <lane id="1/0to0/0_3" index="3" speed="20.00" length="147.20" shape="160.35,1.65 13.15,1.65"/>
    </edge>
    <edge id="1/0to1/1" from="1/0" to="1/1" priority="-1">
        <lane id="1/0to1/1_0" index="0" speed="20.00" length="470.70" shape="186.55,14.65 186.55,485.35"/>
        <lane id="1/0to1/1_1" index="1" speed="20.00" length="470.70" shape="183.25,14.65 183.25,485.35"/>
        <lane id="1/0to1/1_2" index="2" speed="20.00" length="470.70" shape="179.95,14.65 179.95,485.35"/>
        <lane id="1/0to1/1_3" index="3" speed="20.00" length="470.70" shape="176.65,14.65 176.65,485.35"/>
    </edge>
    <edge id="1/0to2/0" from="1/0" to="2/0" priority="-1">
        <lane id="1/0to2/0_0" index="0" speed="20.00" length="145.70" shape="189.65,-11.55 335.35,-11.55"/>
        <lane id="1/0to2/0_1" index="1" speed="20.00" length="145.70" shape="189.65,-8.25 335.35,-8.25"/>
        <lane id="1/0to2/0_2" index="2" speed="20.00" length="145.70" shape="189.65,-4.95 335.35,-4.95"/>
        <lane id="1/0to2/0_3" index="3" speed="20.00" length="145.70" shape="189.65,-1.65 335.35,-1.65"/>
    </edge>
    <edge id="1/1to0/1" from="1/1" to="0/1" priority="-1">
        <lane id="1/1to0/1_0" index="0" speed="20.00" length="145.70" shape="160.35,511.55 14.65,511.55"/>
        <lane id="1/1to0/1_1" index="1" speed="20.00" length="145.70" shape="160.35,508.25 14.65,508.25"/>
        <lane id="1/1to0/1_2" index="2" speed="20.00" length="145.70" shape="160.35,504.95 14.65,504.95"/>
        <lane id="1/1to0/1_3" index="3" speed="20.00" length="145.70" shape="160.35,501.65 14.65,501.65"/>
    </edge>
    <edge id="1/1to1/0" from="1/1" to="1/0" priority="-1">
        <lane id="1/1to1/0_0" index="0" speed="20.00" length="470.70" shape="163.45,485.35 163.45,14.65"/>
        <lane id="1/1to1/0_1" index="1" speed="20.00" length="470.70" shape="166.75,485.35 166.75,14.65"/>
        <lane id="1/1to1/0_2" index="2" speed="20.00" length="470.70" shape="170.05,485.35 170.05,14.65"/>
        <lane id="1/1to1/0_3" index="3" speed="20.00" length="470.70" shape="173.35,485.35 173.35,14.65"/>
    </edge>
    <edge id="1/1to1/2" from="1/1" to="1/2" priority="-1">
        <lane id="1/1to1/2_0" index="0" speed="20.00" length="470.70" shape="186.55,514.65 186.55,985.35"/>
        <lane id="1/1to1/2_1" index="1" speed="20.00" length="470.70" shape="183.25,514.65 183.25,985.35"/>
        <lane id="1/1to1/2_2" index="2" speed="20.00" length="470.70" shape="179.95,514.65 179.95,985.35"/>
        <lane id="1/1to1/2_3" index="3" speed="20.00" length="470.70" shape="176.65,514.65 176.65,985.35"/>
    </edge>
    <edge id="1/1to2/1" from="1/1" to="2/1" priority="-1">
        <lane id="1/1to2/1_0" index="0" speed="20.00" length="145.70" shape="189.65,488.45 335.35,488.45"/>
        <lane id="1/1to2/1_1" index="1" speed="20.00" length="145.70" shape="189.65,491.75 335.35,491.75"/>
        <lane id="1/1to2/1_2" index="2" speed="20.00" length="145.70" shape="189.65,495.05 335.35,495.05"/>
        <lane id="1/1to2/1_3" index="3" speed="20.00" length="145.70" shape="189.65,498.35 335.35,498.35"/>
    </edge>
    <edge id="1/2to0/2" from="1/2" to="0/2" priority="-1">
        <lane id="1/2to0/2_0" index="0" speed="20.00" length="145.70" shape="160.35,1011.55 14.65,1011.55"/>
        <lane id="1/2to0/2_1" index="1" speed="20.00" length="145.70" shape="160.35,1008.25 14.65,1008.25"/>
        <lane id="1/2to0/2_2" index="2" speed="20.00" length="145.70" shape="160.35,1004.95 14.65,1004.95"/>
        <lane id="1/2to0/2_3" index="3" speed="20.00" length="145.70" shape="160.35,1001.65 14.65,1001.65"/>
    </edge>
    <edge id="1/2to1/1" from="1/2" to="1/1" priority="-1">
        <lane id="1/2to1/1_0" index="0" speed="20.00" length="470.70" shape="163.45,985.35 163.45,514.65"/>
        <lane id="1/2to1/1_1" index="1" speed="20.00" length="470.70" shape="166.75,985.35 166.75,514.65"/>
        <lane id="1/2to1/1_2" index="2" speed="20.00" length="470.70" shape="170.05,985.35 170.05,514.65"/>
        <lane id="1/2to1/1_3" index="3" speed="20.00" length="470.70" shape="173.35,985.35 173.35,514.65"/>
    </edge>
    <edge id="1/2to1/3" from="1/2" to="1/3" priority="-1">
        <lane id="1/2to1/3_0" index="0" speed="20.00" length="470.70" shape="186.55,1014.65 186.55,1485.35"/>
        <lane id="1/2to1/3_1" index="1" speed="20.00" length="470.70" shape="183.25,1014.65 183.25,1485.35"/>
        <lane id="1/2to1/3_2" index="2" speed="20.00" length="470.70" shape="179.95,1014.65 179.95,1485.35"/>
        <lane id="1/2to1/3_3" index="3" speed="20.00" length="470.70" shape="176.65,1014.65 176.65,1485.35"/>
    </edge>
    <edge id="1/2to2/2" from="1/2" to="2/2" priority="-1">
        <lane id="1/2to2/2_0" index="0" speed="20.00" length="145.70" shape="189.65,988.45 335.35,988.45"/>
        <lane id="1/2to2/2_1" index="1" speed="20.00" length="145.70" shape="189.65,991.75 335.35,991.75"/>
        <lane id="1/2to2/2_2" index="2" speed="20.00" length="145.70" shape="189.65,995.05 335.35,995.05"/>
        <lane id="1/2to2/2_3" index="3" speed="20.00" length="145.70" shape="189.65,998.35 335.35,998.35"/>
    </edge>
    <edge id="1/3to0/3" from="1/3" to="0/3" priority="-1">
        <lane id="1/3to0/3_0" index="0" speed="20.00" length="147.20" shape="160.35,1511.55 13.15,1511.55"/>
        <lane id="1/3to0/3_1" index="1" speed="20.00" length="147.20" shape="160.35,1508.25 13.15,1508.25"/>
        <lane id="1/3to0/3_2" index="2" speed="20.00" length="147.20" shape="160.35,1504.95 13.15,1504.95"/>
        <lane id="1/3to0/3_3" index="3" speed="20.00" length="147.20" shape="160.35,1501.65 13.15,1501.65"/>
    </edge>
    <edge id="1/3to1/2" from="1/3" to="1/2" priority="-1">
        <lane id="1/3to1/2_0" index="0" speed="20.00" length="470.70" shape="163.45,1485.35 163.45,1014.65"/>
        <lane id="1/3to1/2_1" index="1" speed="20.00" length="470.70" shape="166.75,1485.35 166.75,1014.65"/>
        <lane id="1/3to1/2_2" index="2" speed="20.00" length="470.70" shape="170.05,1485.35 170.05,1014.65"/>
        <lane id="1/3to1/2_3" index="3" speed="20.00" length="470.70" shape="173.35,1485.35 173.35,1014.65"/>
    </edge>
    <edge id="1/3to2/3" from="1/3" to="2/3" priority="-1">
        <lane id="1/3to2/3_0" index="0" speed="20.00" length="145.70" shape="189.65,1488.45 335.35,1488.45"/>
        <lane id="1/3to2/3_1" index="1" speed="20.00" length="145.70" shape="189.65,1491.75 335.35,1491.75"/>
        <lane id="1/3to2/3_2" index="2" speed="20.00" length="145.70" shape="189.65,1495.05 335.35,1495.05"/>
        <lane id="1/3to2/3_3" index="3" speed="20.00" length="145.70" shape="189.65,1498.35 335.35,1498.35"/>
    </edge>
    <edge id="2/0to1/0" from="2/0" to="1/0" priority="-1">
        <lane id="2/0to1/0_0" index="0" speed="20.00" length="145.70" shape="335.35,11.55 189.65,11.55"/>
        <lane id="2/0to1/0_1" index="1" speed="20.00" length="145.70" shape="335.35,8.25 189.65,8.25"/>
        <lane id="2/0to1/0_2" index="2" speed="20.00" length="145.70" shape="335.35,4.95 189.65,4.95"/>
        <lane id="2/0to1/0_3" index="3" speed="20.00" length="145.70" shape="335.35,1.65 189.65,1.65"/>
    </edge>
    <edge id="2/0to2/1" from="2/0" to="2/1" priority="-1">
        <lane id="2/0to2/1_0" index="0" speed="20.00" length="470.70" shape="361.55,14.65 361.55,485.35"/>
        <lane id="2/0to2/1_1" index="1" speed="20.00" length="470.70" shape="358.25,14.65 358.25,485.35"/>
        <lane id="2/0to2/1_2" index="2" speed="20.00" length="470.70" shape="354.95,14.65 354.95,485.35"/>
        <lane id="2/0to2/1_3" index="3" speed="20.00" length="470.70" shape="351.65,14.65 351.65,485.35"/>
    </edge>
    <edge id="2/0to3/0" from="2/0" to="3/0" priority="-1">
        <lane id="2/0to3/0_0" index="0" speed="20.00" length="147.20" shape="364.65,-11.55 511.85,-11.55"/>
        <lane id="2/0to3/0_1" index="1" speed="20.00" length="147.20" shape="364.65,-8.25 511.85,-8.25"/>
        <lane id="2/0to3/0_2" index="2" speed="20.00" length="147.20" shape="364.65,-4.95 511.85,-4.95"/>
        <lane id="2/0to3/0_3" index="3" speed="20.00" length="147.20" shape="364.65,-1.65 511.85,-1.65"/>
    </edge>
    <edge id="2/1to1/1" from="2/1" to="1/1" priority="-1">
        <lane id="2/1to1/1_0" index="0" speed="20.00" length="145.70" shape="335.35,511.55 189.65,511.55"/>
        <lane id="2/1to1/1_1" index="1" speed="20.00" length="145.70" shape="335.35,508.25 189.65,508.25"/>
        <lane id="2/1to1/1_2" index="2" speed="20.00" length="145.70" shape="335.35,504.95 189.65,504.95"/>
        <lane id="2/1to1/1_3" index="3" speed="20.00" length="145.70" shape="335.35,501.65 189.65,501.65"/>
    </edge>
    <edge id="2/1to2/0" from="2/1" to="2/0" priority="-1">
        <lane id="2/1to2/0_0" index="0" speed="20.00" length="470.70" shape="338.45,485.35 338.45,14.65"/>
        <lane id="2/1to2/0_1" index="1" speed="20.00" length="470.70" shape="341.75,485.35 341.75,14.65"/>
        <lane id="2/1to2/0_2" index="2" speed="20.00" length="470.70" shape="345.05,485.35 345.05,14.65"/>
        <lane id="2/1to2/0_3" index="3" speed="20.00" length="470.70" shape="348.35,485.35 348.35,14.65"/>
    </edge>
    <edge id="2/1to2/2" from="2/1" to="2/2" priority="-1">
        <lane id="2/1to2/2_0" index="0" speed="20.00" length="470.70" shape="361.55,514.65 361.55,985.35"/>
        <lane id="2/1to2/2_1" index="1" speed="20.00" length="470.70" shape="358.25,514.65 358.25,985.35"/>
        <lane id="2/1to2/2_2" index="2" speed="20.00" length="470.70" shape="354.95,514.65 354.95,985.35"/>
        <lane id="2/1to2/2_3" index="3" speed="20.00" length="470.70" shape="351.65,514.65 351.65,985.35"/>
    </edge>
    <edge id="2/1to3/1" from="2/1" to="3/1" priority="-1">
        <lane id="2/1to3/1_0" index="0" speed="20.00" length="145.70" shape="364.65,488.45 510.35,488.45"/>
        <lane id="2/1to3/1_1" index="1" speed="20.00" length="145.70" shape="364.65,491.75 510.35,491.75"/>
        <lane id="2/1to3/1_2" index="2" speed="20.00" length="145.70" shape="364.65,495.05 510.35,495.05"/>
        <lane id="2/1to3/1_3" index="3" speed="20.00" length="145.70" shape="364.65,498.35 510.35,498.35"/>
    </edge>
    <edge id="2/2to1/2" from="2/2" to="1/2" priority="-1">
        <lane id="2/2to1/2_0" index="0" speed="20.00" length="145.70" shape="335.35,1011.55 189.65,1011.55"/>
        <lane id="2/2to1/2_1" index="1" speed="20.00" length="145.70" shape="335.35,1008.25 189.65,1008.25"/>
        <lane id="2/2to1/2_2" index="2" speed="20.00" length="145.70" shape="335.35,1004.95 189.65,1004.95"/>
        <lane id="2/2to1/2_3" index="3" speed="20.00" length="145.70" shape="335.35,1001.65 189.65,1001.65"/>
    </edge>
    <edge id="2/2to2/1" from="2/2" to="2/1" priority="-1">
        <lane id="2/2to2/1_0" index="0" speed="20.00" length="470.70" shape="338.45,985.35 338.45,514.65"/>
        <lane id="2/2to2/1_1" index="1" speed="20.00" length="470.70" shape="341.75,985.35 341.75,514.65"/>
        <lane id="2/2to2/1_2" index="2" speed="20.00" length="470.70" shape="345.05,985.35 345.05,514.65"/>
        <lane id="2/2to2/1_3" index="3" speed="20.00" length="470.70" shape="348.35,985.35 348.35,514.65"/>
    </edge>
    <edge id="2/2to2/3" from="2/2" to="2/3" priority="-1">
        <lane id="2/2to2/3_0" index="0" speed="20.00" length="470.70" shape="361.55,1014.65 361.55,1485.35"/>
        <lane id="2/2to2/3_1" index="1" speed="20.00" length="470.70" shape="358.25,1014.65 358.25,1485.35"/>
        <lane id="2/2to2/3_2" index="2" speed="20.00" length="470.70" shape="354.95,1014.65 354.95,1485.35"/>
        <lane id="2/2to2/3_3" index="3" speed="20.00" length="470.70" shape="351.65,1014.65 351.65,1485.35"/>
    </edge>
    <edge id="2/2to3/2" from="2/2" to="3/2" priority="-1">
        <lane id="2/2to3/2_0" index="0" speed="20.00" length="145.70" shape="364.65,988.45 510.35,988.45"/>
        <lane id="2/2to3/2_1" index="1" speed="20.00" length="145.70" shape="364.65,991.75 510.35,991.75"/>
        <lane id="2/2to3/2_2" index="2" speed="20.00" length="145.70" shape="364.65,995.05 510.35,995.05"/>
        <lane id="2/2to3/2_3" index="3" speed="20.00" length="145.70" shape="364.65,998.35 510.35,998.35"/>
    </edge>
    <edge id="2/3to1/3" from="2/3" to="1/3" priority="-1">
        <lane id="2/3to1/3_0" index="0" speed="20.00" length="145.70" shape="335.35,1511.55 189.65,1511.55"/>
        <lane id="2/3to1/3_1" index="1" speed="20.00" length="145.70" shape="335.35,1508.25 189.65,1508.25"/>
        <lane id="2/3to1/3_2" index="2" speed="20.00" length="145.70" shape="335.35,1504.95 189.65,1504.95"/>
        <lane id="2/3to1/3_3" index="3" speed="20.00" length="145.70" shape="335.35,1501.65 189.65,1501.65"/>
    </edge>
    <edge id="2/3to2/2" from="2/3" to="2/2" priority="-1">
        <lane id="2/3to2/2_0" index="0" speed="20.00" length="470.70" shape="338.45,1485.35 338.45,1014.65"/>
        <lane id="2/3to2/2_1" index="1" speed="20.00" length="470.70" shape="341.75,1485.35 341.75,1014.65"/>
        <lane id="2/3to2/2_2" index="2" speed="20.00" length="470.70" shape="345.05,1485.35 345.05,1014.65"/>
        <lane id="2/3to2/2_3" index="3" speed="20.00" length="470.70" shape="348.35,1485.35 348.35,1014.65"/>
    </edge>
    <edge id="2/3to3/3" from="2/3" to="3/3" priority="-1">
        <lane id="2/3to3/3_0" index="0" speed="20.00" length="147.20" shape="364.65,1488.45 511.85,1488.45"/>
        <lane id="2/3to3/3_1" index="1" speed="20.00" length="147.20" shape="364.65,1491.75 511.85,1491.75"/>
        <lane id="2/3to3/3_2" index="2" speed="20.00" length="147.20" shape="364.65,1495.05 511.85,1495.05"/>
        <lane id="2/3to3/3_3" index="3" speed="20.00" length="147.20" shape="364.65,1498.35 511.85,1498.35"/>
    </edge>
    <edge id="3/0to2/0" from="3/0" to="2/0" priority="-1">
        <lane id="3/0to2/0_0" index="0" speed="20.00" length="147.20" shape="511.85,11.55 364.65,11.55"/>
        <lane id="3/0to2/0_1" index="1" speed="20.00" length="147.20" shape="511.85,8.25 364.65,8.25"/>
        <lane id="3/0to2/0_2" index="2" speed="20.00" length="147.20" shape="511.85,4.95 364.65,4.95"/>
        <lane id="3/0to2/0_3" index="3" speed="20.00" length="147.20" shape="511.85,1.65 364.65,1.65"/>
    </edge>
    <edge id="3/0to3/1" from="3/0" to="3/1" priority="-1">
        <lane id="3/0to3/1_0" index="0" speed="20.00" length="472.20" shape="536.55,13.15 536.55,485.35"/>
        <lane id="3/0to3/1_1" index="1" speed="20.00" length="472.20" shape="533.25,13.15 533.25,485.35"/>
        <lane id="3/0to3/1_2" index="2" speed="20.00" length="472.20" shape="529.95,13.15 529.95,485.35"/>
        <lane id="3/0to3/1_3" index="3" speed="20.00" length="472.20" shape="526.65,13.15 526.65,485.35"/>
    </edge>
    <edge id="3/1to2/1" from="3/1" to="2/1" priority="-1">
        <lane id="3/1to2/1_0" index="0" speed="20.00" length="145.70" shape="510.35,511.55 364.65,511.55"/>
        <lane id="3/1to2/1_1" index="1" speed="20.00" length="145.70" shape="510.35,508.25 364.65,508.25"/>
        <lane id="3/1to2/1_2" index="2" speed="20.00" length="145.70" shape="510.35,504.95 364.65,504.95"/>
        <lane id="3/1to2/1_3" index="3" speed="20.00" length="145.70" shape="510.35,501.65 364.65,501.65"/>
    </edge>
    <edge id="3/1to3/0" from="3/1" to="3/0" priority="-1">
        <lane id="3/1to3/0_0" index="0" speed="20.00" length="472.20" shape="513.45,485.35 513.45,13.15"/>
        <lane id="3/1to3/0_1" index="1" speed="20.00" length="472.20" shape="516.75,485.35 516.75,13.15"/>
        <lane id="3/1to3/0_2" index="2" speed="20.00" length="472.20" shape="520.05,485.35 520.05,13.15"/>
        <lane id="3/1to3/0_3" index="3" speed="20.00" length="472.20" shape="523.35,485.35 523.35,13.15"/>
    </edge>
    <edge id="3/1to3/2" from="3/1" to="3/2" priority="-1">
        <lane id="3/1to3/2_0" index="0" speed="20.00" length="470.70" shape="536.55,514.65 536.55,985.35"/>
        <lane id="3/1to3/2_1" index="1" speed="20.00" length="470.70" shape="533.25,514.65 533.25,985.35"/>
        <lane id="3/1to3/2_2" index="2" speed="20.00" length="470.70" shape="529.95,514.65 529.95,985.35"/>
        <lane id="3/1to3/2_3" index="3" speed="20.00" length="470.70" shape="526.65,514.65 526.65,985.35"/>
    </edge>
    <edge id="3/2to2/2" from="3/2" to="2/2" priority="-1">
        <lane id="3/2to2/2_0" index="0" speed="20.00" length="145.70" shape="510.35,1011.55 364.65,1011.55"/>
        <lane id="3/2to2/2_1" index="1" speed="20.00" length="145.70" shape="510.35,1008.25 364.65,1008.25"/>
        <lane id="3/2to2/2_2" index="2" speed="20.00" length="145.70" shape="510.35,1004.95 364.65,1004.95"/>
        <lane id="3/2to2/2_3" index="3" speed="20.00" length="145.70" shape="510.35,1001.65 364.65,1001.65"/>
    </edge>
    <edge id="3/2to3/1" from="3/2" to="3/1" priority="-1">
        <lane id="3/2to3/1_0" index="0" speed="20.00" length="470.70" shape="513.45,985.35 513.45,514.65"/>
        <lane id="3/2to3/1_1" index="1" speed="20.00" length="470.70" shape="516.75,985.35 516.75,514.65"/>
        <lane id="3/2to3/1_2" index="2" speed="20.00" length="470.70" shape="520.05,985.35 520.05,514.65"/>
        <lane id="3/2to3/1_3" index="3" speed="20.00" length="470.70" shape="523.35,985.35 523.35,514.65"/>
    </edge>
    <edge id="3/2to3/3" from="3/2" to="3/3" priority="-1">
        <lane id="3/2to3/3_0" index="0" speed="20.00" length="472.20" shape="536.55,1014.65 536.55,1486.85"/>
        <lane id="3/2to3/3_1" index="1" speed="20.00" length="472.20" shape="533.25,1014.65 533.25,1486.85"/>
        <lane id="3/2to3/3_2" index="2" speed="20.00" length="472.20" shape="529.95,1014.65 529.95,1486.85"/>
        <lane id="3/2to3/3_3" index="3" speed="20.00" length="472.20" shape="526.65,1014.65 526.65,1486.85"/>
    </edge>
    <edge id="3/3to2/3" from="3/3" to="2/3" priority="-1">
        <lane id="3/3to2/3_0" index="0" speed="20.00" length="147.20" shape="511.85,1511.55 364.65,1511.55"/>
        <lane id="3/3to2/3_1" index="1" speed="20.00" length="147.20" shape="511.85,1508.25 364.65,1508.25"/>
        <lane id="3/3to2/3_2" index="2" speed="20.00" length="147.20" shape="511.85,1504.95 364.65,1504.95"/>
        <lane id="3/3to2/3_3" index="3" speed="20.00" length="147.20" shape="511.85,1501.65 364.65,1501.65"/>
    </edge>
    <edge id="3/3to3/2" from="3/3" to="3/2" priority="-1">
        <lane id="3/3to3/2_0" index="0" speed="20.00" length="472.20" shape="513.45,1486.85 513.45,1014.65"/>
        <lane id="3/3to3/2_1" index="1" speed="20.00" length="472.20" shape="516.75,1486.85 516.75,1014.65"/>
        <lane id="3/3to3/2_2" index="2" speed="20.00" length="472.20" shape="520.05,1486.85 520.05,1014.65"/>
        <lane id="3/3to3/2_3" index="3" speed="20.00" length="472.20" shape="523.35,1486.85 523.35,1014.65"/>
    </edge>

    <junction id="0/0" type="priority" x="0.00" y="0.00" incLanes="0/1to0/0_0 0/1to0/0_1 0/1to0/0_2 0/1to0/0_3 1/0to0/0_0 1/0to0/0_1 1/0to0/0_2 1/0to0/0_3" intLanes="" shape="-13.15,13.15 13.15,13.15 13.15,-13.15">
        <request index="0" response="0000000000" foes="1000000000"/>
        <request index="1" response="0000000000" foes="1000000000"/>
        <request index="2" response="0000000000" foes="1000000000"/>
        <request index="3" response="0000000000" foes="1000000000"/>
        <request index="4" response="0111100000" foes="0111100000"/>
        <request index="5" response="0000000000" foes="0000010000"/>
        <request index="6" response="0000000000" foes="0000010000"/>
        <request index="7" response="0000000000" foes="0000010000"/>
        <request index="8" response="0000000000" foes="0000010000"/>
        <request index="9" response="0000001111" foes="0000001111"/>
    </junction>
    <junction id="0/1" type="priority" x="0.00" y="500.00" incLanes="0/2to0/1_0 0/2to0/1_1 0/2to0/1_2 0/2to0/1_3 1/1to0/1_0 1/1to0/1_1 1/1to0/1_2 1/1to0/1_3 0/0to0/1_0 0/0to0/1_1 0/0to0/1_2 0/0to0/1_3" intLanes="" shape="-13.15,514.65 13.15,514.65 14.65,513.15 14.65,486.85 13.15,485.35 -13.15,485.35">
        <request index="0" response="0000000000000000000" foes="1000000011000000000"/>
        <request index="1" response="0000000000000000000" foes="1000000011000000000"/>
        <request index="2" response="0000000000000000000" foes="1000000011000000000"/>
        <request index="3" response="0111111000000000000" foes="0111111111000000000"/>
        <request index="4" response="0111111000000000000" foes="0111111111000000000"/>
        <request index="5" response="0111100000111000000" foes="0111100000111000000"/>
        <request index="6" response="0111100000000000000" foes="0111100000000100000"/>
        <request index="7" response="0111100000000000000" foes="0111100000000100000"/>
        <request index="8" response="0111100000000000000" foes="0111100000000100000"/>
        <request index="9" response="0111100000000011111" foes="1111100000000011111"/>
        <request index="10" response="0111100000000011111" foes="1111100000000011111"/>
        <request index="11" response="0000011000000011000" foes="0000011000000011000"/>
        <request index="12" response="0000000000000000000" foes="0000000100000011000"/>
        <request index="13" response="0000000000000000000" foes="0000000100000011000"/>
        <request index="14" response="0000000000000000000" foes="0000000011111111000"/>
        <request index="15" response="0000000000000000000" foes="0000000011111111000"/>
        <request index="16" response="0000000000000000000" foes="0000000011111111000"/>
        <request index="17" response="0000000000000000000" foes="0000000011111111000"/>
        <request index="18" response="0000000011000000111" foes="0000000011000000111"/>
    </junction>
    <junction id="0/2" type="priority" x="0.00" y="1000.00" incLanes="0/3to0/2_0 0/3to0/2_1 0/3to0/2_2 0/3to0/2_3 1/2to0/2_0 1/2to0/2_1 1/2to0/2_2 1/2to0/2_3 0/1to0/2_0 0/1to0/2_1 0/1to0/2_2 0/1to0/2_3" intLanes="" shape="-13.15,1014.65 13.15,1014.65 14.65,1013.15 14.65,986.85 13.15,985.35 -13.15,985.35">
        <request index="0" response="0000000000000000000" foes="1000000011000000000"/>
        <request index="1" response="0000000000000000000" foes="1000000011000000000"/>
        <request index="2" response="0000000000000000000" foes="1000000011000000000"/>
        <request index="3" response="0111111000000000000" foes="0111111111000000000"/>
        <request index="4" response="0111111000000000000" foes="0111111111000000000"/>
        <request index="5" response="0111100000111000000" foes="0111100000111000000"/>
        <request index="6" response="0111100000000000000" foes="0111100000000100000"/>
        <request index="7" response="0111100000000000000" foes="0111100000000100000"/>
        <request index="8" response="0111100000000000000" foes="0111100000000100000"/>
        <request index="9" response="0111100000000011111" foes="1111100000000011111"/>
        <request index="10" response="0111100000000011111" foes="1111100000000011111"/>
        <request index="11" response="0000011000000011000" foes="0000011000000011000"/>
        <request index="12" response="0000000000000000000" foes="0000000100000011000"/>