<?xml version="1.0" encoding="UTF-8"?>

<!-- generated on 03/22/15 03:58:32 by SUMO duarouter Version 0.17.1
<?xml version="1.0" encoding="UTF-8"?>

<configuration xmlns:xsi="http://www.w3.org/2001/XMLSchema-instance" xsi:noNamespaceSchemaLocation="http://sumo.sf.net/xsd/duarouterConfiguration.xsd">

    <input>
        <net-file value="input_net.net.xml"/>
        <trip-files value="trips.trips.xml"/>
    </input>

    <output>
        <output-file value="routes.rou.xml"/>
    </output>

</configuration>
-->

<routes xmlns:xsi="http://www.w3.org/2001/XMLSchema-instance" xsi:noNamespaceSchemaLocation="http://sumo.sf.net/xsd/routes_file.xsd">
    <vehicle id="0" depart="0.00">
       <route edges="0/0to0/1 0/1to1/1 1/1to1/2 1/2to0/2 0/2to0/3"/>
    </vehicle>
    <vehicle id="1" depart="0.00">
       <route edges="0/0to0/1 0/1to1/1 1/1to1/2 1/2to0/2 0/2to0/3"/>
    </vehicle>
    <vehicle id="2" depart="0.00">
       <route edges="0/0to0/1 0/1to1/1 1/1to1/2 1/2to0/2 0/2to0/3"/>
    </vehicle>
    <vehicle id="3" depart="0.00">
       <route edges="0/0to0/1 0/1to1/1 1/1to1/2 1/2to0/2 0/2to0/3"/>
    </vehicle>
    <vehicle id="4" depart="0.00">
       <route edges="0/0to0/1 0/1to1/1 1/1to1/2 1/2to0/2 0/2to0/3"/>
    </vehicle>
    <vehicle id="5" depart="0.00">
       <route edges="0/0to0/1 0/1to1/1 1/1to1/2 1/2to0/2 0/2to0/3"/>
    </vehicle>
    <vehicle id="6" depart="0.00">
       <route edges="0/0to0/1 0/1to1/1 1/1to1/2 1/2to0/2 0/2to0/3"/>
    </vehicle>
    <vehicle id="7" depart="0.00">
       <route edges="0/0to0/1 0/1to1/1 1/1to1/2 1/2to0/2 0/2to0/3"/>
    </vehicle>
    <vehicle id="8" depart="0.00">
       <route edges="0/0to0/1 0/1to1/1 1/1to1/2 1/2to0/2 0/2to0/3"/>
    </vehicle>
    <vehicle id="9" depart="0.00">
       <route edges="0/0to0/1 0/1to1/1 1/1to1/2 1/2to0/2 0/2to0/3"/>
    </vehicle>
    <vehicle id="10" depart="0.00">
       <route edges="0/0to0/1 0/1to1/1 1/1to1/2 1/2to0/2 0/2to0/3"/>
    </vehicle>
    <vehicle id="11" depart="0.00">
       <route edges="0/0to0/1 0/1to1/1 1/1to1/2 1/2to0/2 0/2to0/3"/>
    </vehicle>
    <vehicle id="12" depart="0.00">
       <route edges="0/0to0/1 0/1to1/1 1/1to1/2 1/2to0/2 0/2to0/3"/>
    </vehicle>
    <vehicle id="13" depart="0.00">
       <route edges="0/0to0/1 0/1to1/1 1/1to1/2 1/2to0/2 0/2to0/3"/>
    </vehicle>
    <vehicle id="14" depart="0.00">
       <route edges="0/0to0/1 0/1to1/1 1/1to1/2 1/2to0/2 0/2to0/3"/>
    </vehicle>
    <vehicle id="15" depart="0.00">
       <route edges="0/0to0/1 0/1to1/1 1/1to1/2 1/2to0/2 0/2to0/3"/>
    </vehicle>
    <vehicle id="16" depart="0.00">
       <route edges="0/0to0/1 0/1to1/1 1/1to1/2 1/2to0/2 0/2to0/3"/>
    </vehicle>
    <vehicle id="17" depart="0.00">
       <route edges="0/0to0/1 0/1to1/1 1/1to1/2 1/2to0/2 0/2to0/3"/>
    </vehicle>
    <vehicle id="18" depart="0.00">
       <route edges="0/0to0/1 0/1to1/1 1/1to1/2 1/2to0/2 0/2to0/3"/>
    </vehicle>
    <vehicle id="19" depart="0.00">
       <route edges="0/0to0/1 0/1to1/1 1/1to1/2 1/2to0/2 0/2to0/3"/>
    </vehicle>
    <vehicle id="20" depart="0.00">
       <route edges="0/0to0/1 0/1to1/1 1/1to1/2 1/2to0/2 0/2to0/3"/>
    </vehicle>
    <vehicle id="21" depart="0.00">
       <route edges="0/0to0/1 0/1to1/1 1/1to1/2 1/2to0/2 0/2to0/3"/>
    </vehicle>
    <vehicle id="22" depart="0.00">
       <route edges="0/0to0/1 0/1to1/1 1/1to1/2 1/2to0/2 0/2to0/3"/>
    </vehicle>
    <vehicle id="23" depart="0.00">
       <route edges="0/0to0/1 0/1to1/1 1/1to1/2 1/2to0/2 0/2to0/3"/>
    </vehicle>
    <vehicle id="24" depart="0.00">
       <route edges="0/0to0/1 0/1to1/1 1/1to1/2 1/2to0/2 0/2to0/3"/>
    </vehicle>
    <vehicle id="25" depart="0.00">
       <route edges="0/0to0/1 0/1to1/1 1/1to1/2 1/2to0/2 0/2to0/3"/>
    </vehicle>
    <vehicle id="26" depart="0.00">
       <route edges="0/0to0/1 0/1to1/1 1/1to1/2 1/2to0/2 0/2to0/3"/>
    </vehicle>
    <vehicle id="27" depart="0.00">
       <route edges="0/0to0/1 0/1to1/1 1/1to1/2 1/2to0/2 0/2to0/3"/>
    </vehicle>
    <vehicle id="28" depart="0.00">
       <route edges="0/0to0/1 0/1to1/1 1/1to1/2 1/2to0/2 0/2to0/3"/>
    </vehicle>
    <vehicle id="29" depart="0.00">
       <route edges="0/0to0/1 0/1to1/1 1/1to1/2 1/2to0/2 0/2to0/3"/>
    </vehicle>
    <vehicle id="30" depart="0.00">
       <route edges="0/0to0/1 0/1to1/1 1/1to1/2 1/2to0/2 0/2to0/3"/>
    </vehicle>
    <vehicle id="31" depart="0.00">
       <route edges="0/0to0/1 0/1to1/1 1/1to1/2 1/2to0/2 0/2to0/3"/>
    </vehicle>
    <vehicle id="32" depart="0.00">
       <route edges="0/0to0/1 0/1to1/1 1/1to1/2 1/2to0/2 0/2to0/3"/>
    </vehicle>
    <vehicle id="33" depart="0.00">
       <route edges="0/0to0/1 0/1to1/1 1/1to1/2 1/2to0/2 0/2to0/3"/>
    </vehicle>
    <vehicle id="34" depart="0.00">
       <route edges="0/0to0/1 0/1to1/1 1/1to1/2 1/2to0/2 0/2to0/3"/>
    </vehicle>
    <vehicle id="35" depart="0.00">
       <route edges="0/0to0/1 0/1to1/1 1/1to1/2 1/2to0/2 0/2to0/3"/>
    </vehicle>
    <vehicle id="36" depart="0.00">
       <route edges="0/0to0/1 0/1to1/1 1/1to1/2 1/2to0/2 0/2to0/3"/>
    </vehicle>
    <vehicle id="37" depart="0.00">
       <route edges="0/0to0/1 0/1to1/1 1/1to1/2 1/2to0/2 0/2to0/3"/>
    </vehicle>
    <vehicle id="38" depart="0.00">
       <route edges="0/0to0/1 0/1to1/1 1/1to1/2 1/2to0/2 0/2to0/3"/>
    </vehicle>
    <vehicle id="39" depart="0.00">
       <route edges="0/0to0/1 0/1to1/1 1/1to1/2 1/2to0/2 0/2to0/3"/>
    </vehicle>
    <vehicle id="40" depart="0.00">
       <route edges="0/0to0/1 0/1to1/1 1/1to1/2 1/2to0/2 0/2to0/3"/>
    </vehicle>
    <vehicle id="41" depart="0.00">
       <route edges="0/0to0/1 0/1to1/1 1/1to1/2 1/2to0/2 0/2to0/3"/>
    </vehicle>
    <vehicle id="42" depart="0.00">
       <route edges="0/0to0/1 0/1to1/1 1/1to1/2 1/2to0/2 0/2to0/3"/>
    </vehicle>
    <vehicle id="43" depart="0.00">
       <route edges="0/0to0/1 0/1to1/1 1/1to1/2 1/2to0/2 0/2to0/3"/>
    </vehicle>
    <vehicle id="44" depart="0.00">
       <route edges="0/0to0/1 0/1to1/1 1/1to1/2 1/2to0/2 0/2to0/3"/>
    </vehicle>
    <vehicle id="45" depart="0.00">
       <route edges="0/0to0/1 0/1to1/1 1/1to1/2 1/2to0/2 0/2to0/3"/>
    </vehicle>
    <vehicle id="46" depart="0.00">
       <route edges="0/0to0/1 0/1to1/1 1/1to1/2 1/2to0/2 0/2to0/3"/>
    </vehicle>
    <vehicle id="47" depart="0.00">
       <route edges="0/0to0/1 0/1to1/1 1/1to1/2 1/2to0/2 0/2to0/3"/>
    </vehicle>
    <vehicle id="48" depart="0.00">
       <route edges="0/0to0/1 0/1to1/1 1/1to1/2 1/2to0/2 0/2to0/3"/>
    </vehicle>
    <vehicle id="49" depart="0.00">
       <route edges="0/0to0/1 0/1to1/1 1/1to1/2 1/2to0/2 0/2to0/3"/>
    </vehicle>
    <vehicle id="50" depart="0.00">
       <route edges="0/0to0/1 0/1to1/1 1/1to1/2 1/2to0/2 0/2to0/3"/>
    </vehicle>
    <vehicle id="51" depart="0.00">
       <route edges="0/0to0/1 0/1to1/1 1/1to1/2 1/2to0/2 0/2to0/3"/>
    </vehicle>
    <vehicle id="52" depart="0.00">
       <route edges="0/0to0/1 0/1to1/1 1/1to1/2 1/2to0/2 0/2to0/3"/>
    </vehicle>
    <vehicle id="53" depart="0.00">
       <route edges="0/0to0/1 0/1to1/1 1/1to1/2 1/2to0/2 0/2to0/3"/>
    </vehicle>
    <vehicle id="54" depart="0.00">
       <route edges="0/0to0/1 0/1to1/1 1/1to1/2 1/2to0/2 0/2to0/3"/>
    </vehicle>
    <vehicle id="55" depart="0.00">
       <route edges="0/0to0/1 0/1to1/1 1/1to1/2 1/2to0/2 0/2to0/3"/>
    </vehicle>
    <vehicle id="56" depart="0.00">
       <route edges="0/0to0/1 0/1to1/1 1/1to1/2 1/2to0/2 0/2to0/3"/>
    </vehicle>
    <vehicle id="57" depart="0.00">
       <route edges="0/0to0/1 0/1to1/1 1/1to1/2 1/2to0/2 0/2to0/3"/>
    </vehicle>
    <vehicle id="58" depart="0.00">
       <route edges="0/0to0/1 0/1to1/1 1/1to1/2 1/2to0/2 0/2to0/3"/>
    </vehicle>
    <vehicle id="59" depart="0.00">
       <route edges="0/0to0/1 0/1to1/1 1/1to1/2 1/2to0/2 0/2to0/3"/>
    </vehicle>
    <vehicle id="60" depart="0.00">
       <route edges="0/0to0/1 0/1to1/1 1/1to1/2 1/2to0/2 0/2to0/3"/>
    </vehicle>
    <vehicle id="61" depart="0.00">
       <route edges="0/0to0/1 0/1to1/1 1/1to1/2 1/2to0/2 0/2to0/3"/>
    </vehicle>
    <vehicle id="62" depart="0.00">
       <route edges="0/0to0/1 0/1to1/1 1/1to1/2 1/2to0/2 0/2to0/3"/>
    </vehicle>
    <vehicle id="63" depart="0.00">
       <route edges="0/0to0/1 0/1to1/1 1/1to1/2 1/2to0/2 0/2to0/3"/>
    </vehicle>
    <vehicle id="64" depart="0.00">
       <route edges="0/0to0/1 0/1to1/1 1/1to1/2 1/2to0/2 0/2to0/3"/>
    </vehicle>
    <vehicle id="65" depart="0.00">
       <route edges="0/0to0/1 0/1to1/1 1/1to1/2 1/2to0/2 0/2to0/3"/>
    </vehicle>
    <vehicle id="66" depart="0.00">
       <route edges="0/0to0/1 0/1to1/1 1/1to1/2 1/2to0/2 0/2to0/3"/>
    </vehicle>
    <vehicle id="67" depart="0.00">
       <route edges="0/0to0/1 0/1to1/1 1/1to1/2 1/2to0/2 0/2to0/3"/>
    </vehicle>
    <vehicle id="68" depart="0.00">
       <route edges="0/0to0/1 0/1to1/1 1/1to1/2 1/2to0/2 0/2to0/3"/>
    </vehicle>
    <vehicle id="69" depart="0.00">
       <route edges="0/0to0/1 0/1to1/1 1/1to1/2 1/2to0/2 0/2to0/3"/>
    </vehicle>
    <vehicle id="70" depart="0.00">
       <route edges="0/0to0/1 0/1to1/1 1/1to1/2 1/2to0/2 0/2to0/3"/>
    </vehicle>
    <vehicle id="71" depart="0.00">
       <route edges="0/0to0/1 0/1to1/1 1/1to1/2 1/2to0/2 0/2to0/3"/>
    </vehicle>
    <vehicle id="72" depart="0.00">
       <route edges="0/0to0/1 0/1to1/1 1/1to1/2 1/2to0/2 0/2to0/3"/>
    </vehicle>
    <vehicle id="73" depart="0.00">
       <route edges="0/0to0/1 0/1to1/1 1/1to1/2 1/2to0/2 0/2to0/3"/>
    </vehicle>
    <vehicle id="74" depart="0.00">
       <route edges="0/0to0/1 0/1to1/1 1/1to1/2 1/2to0/2 0/2to0/3"/>
    </vehicle>
    <vehicle id="75" depart="0.00">
       <route edges="0/0to0/1 0/1to1/1 1/1to1/2 1/2to0/2 0/2to0/3"/>
    </vehicle>
    <vehicle id="76" depart="0.00">
       <route edges="0/0to0/1 0/1to1/1 1/1to1/2 1/2to0/2 0/2to0/3"/>
    </vehicle>
    <vehicle id="77" depart="0.00">
       <route edges="0/0to0/1 0/1to1/1 1/1to1/2 1/2to0/2 0/2to0/3"/>
    </vehicle>
    <vehicle id="78" depart="0.00">
       <route edges="0/0to0/1 0/1to1/1 1/1to1/2 1/2to0/2 0/2to0/3"/>
    </vehicle>
    <vehicle id="79" depart="0.00">
       <route edges="0/0to0/1 0/1to1/1 1/1to1/2 1/2to0/2 0/2to0/3"/>
    </vehicle>
    <vehicle id="80" depart="0.00">
       <route edges="0/0to0/1 0/1to1/1 1/1to1/2 1/2to0/2 0/2to0/3"/>
    </vehicle>
    <vehicle id="81" depart="0.00">
       <route edges="0/0to0/1 0/1to1/1 1/1to1/2 1/2to0/2 0/2to0/3"/>
    </vehicle>
    <vehicle id="82" depart="0.00">
       <route edges="0/0to0/1 0/1to1/1 1/1to1/2 1/2to0/2 0/2to0/3"/>
    </vehicle>
    <vehicle id="83" depart="0.00">
       <route edges="0/0to0/1 0/1to1/1 1/1to1/2 1/2to0/2 0/2to0/3"/>
    </vehicle>
    <vehicle id="84" depart="0.00">
       <route edges="0/0to0/1 0/1to1/1 1/1to1/2 1/2to0/2 0/2to0/3"/>
    </vehicle>
    <vehicle id="85" depart="0.00">
       <route edges="0/0to0/1 0/1to1/1 1/1to1/2 1/2to0/2 0/2to0/3"/>
    </vehicle>
    <vehicle id="86" depart="0.00">
       <route edges="0/0to0/1 0/1to1/1 1/1to1/2 1/2to0/2 0/2to0/3"/>
    </vehicle>
    <vehicle id="87" depart="0.00">
       <route edges="0/0to0/1 0/1to1/1 1/1to1/2 1/2to0/2 0/2to0/3"/>
    </vehicle>
    <vehicle id="88" depart="0.00">
       <route edges="0/0to0/1 0/1to1/1 1/1to1/2 1/2to0/2 0/2to0/3"/>
    </vehicle>
    <vehicle id="89" depart="0.00">
       <route edges="0/0to0/1 0/1to1/1 1/1to1/2 1/2to0/2 0/2to0/3"/>
    </vehicle>
    <vehicle id="90" depart="0.00">
       <route edges="0/0to0/1 0/1to1/1 1/1to1/2 1/2to0/2 0/2to0/3"/>
    </vehicle>
    <vehicle id="91" depart="0.00">
       <route edges="0/0to0/1 0/1to1/1 1/1to1/2 1/2to0/2 0/2to0/3"/>
    </vehicle>
    <vehicle id="92" depart="0.00">
       <route edges="0/0to0/1 0/1to1/1 1/1to1/2 1/2to0/2 0/2to0/3"/>
    </vehicle>
    <vehicle id="93" depart="0.00">
       <route edges="0/0to0/1 0/1to1/1 1/1to1/2 1/2to0/2 0/2to0/3"/>
    </vehicle>
    <vehicle id="94" depart="0.00">
       <route edges="0/0to0/1 0/1to1/1 1/1to1/2 1/2to0/2 0/2to0/3"/>
    </vehicle>
    <vehicle id="95" depart="0.00">
       <route edges="0/0to0/1 0/1to1/1 1/1to1/2 1/2to0/2 0/2to0/3"/>
    </vehicle>
    <vehicle id="96" depart="0.00">
       <route edges="0/0to0/1 0/1to1/1 1/1to1/2 1/2to0/2 0/2to0/3"/>
    </vehicle>
    <vehicle id="97" depart="0.00">
       <route edges="0/0to0/1 0/1to1/1 1/1to1/2 1/2to0/2 0/2to0/3"/>
    </vehicle>
    <vehicle id="98" depart="0.00">
       <route edges="0/0to0/1 0/1to1/1 1/1to1/2 1/2to0/2 0/2to0/3"/>
    </vehicle>
    <vehicle id="99" depart="0.00">
       <route edges="0/0to0/1 0/1to1/1 1/1to1/2 1/2to0/2 0/2to0/3"/>
    </vehicle>
    <vehicle id="100" depart="0.00">
       <route edges="0/0to0/1 0/1to1/1 1/1to1/2 1/2to0/2 0/2to0/3"/>
    </vehicle>
    <vehicle id="101" depart="0.00">
       <route edges="0/0to0/1 0/1to1/1 1/1to1/2 1/2to0/2 0/2to0/3"/>
    </vehicle>
    <vehicle id="102" depart="0.00">
       <route edges="0/0to0/1 0/1to1/1 1/1to1/2 1/2to0/2 0/2to0/3"/>
    </vehicle>
    <vehicle id="103" depart="0.00">
       <route edges="0/0to0/1 0/1to1/1 1/1to1/2 1/2to0/2 0/2to0/3"/>	
    </vehicle>
    <vehicle id="104" depart="0.00">
       <route edges="0/0to0/1 0/1to1/1 1/1to1/2 1/2to0/2 0/2to0/3"/>
    </vehicle>
    <vehicle id="105" depart="0.00">
       <route edges="0/0to0/1 0/1to1/1 1/1to1/2 1/2to0/2 0/2to0/3"/>
    </vehicle>
    <vehicle id="106" depart="0.00">
       <route edges="0/0to0/1 0/1to1/1 1/1to1/2 1/2to0/2 0/2to0/3"/>
    </vehicle>
    <vehicle id="107" depart="0.00">
       <route edges="0/0to0/1 0/1to1/1 1/1to1/2 1/2to0/2 0/2to0/3"/>
    </vehicle>
    <vehicle id="108" depart="0.00">
       <route edges="0/0to0/1 0/1to1/1 1/1to1/2 1/2to0/2 0/2to0/3"/>
    </vehicle>
    <vehicle id="109" depart="0.00">
       <route edges="0/0to0/1 0/1to1/1 1/1to1/2 1/2to0/2 0/2to0/3"/>
    </vehicle>
    <vehicle id="110" depart="0.00">
       <route edges="0/0to0/1 0/1to1/1 1/1to1/2 1/2to0/2 0/2to0/3"/>
    </vehicle>
    <vehicle id="111" depart="0.00">
       <route edges="0/0to0/1 0/1to1/1 1/1to1/2 1/2to0/2 0/2to0/3"/>
    </vehicle>
    <vehicle id="112" depart="0.00">
       <route edges="0/0to0/1 0/1to1/1 1/1to1/2 1/2to0/2 0/2to0/3"/>
    </vehicle>
    <vehicle id="113" depart="0.00">
       <route edges="0/0to0/1 0/1to1/1 1/1to1/2 1/2to0/2 0/2to0/3"/>
    </vehicle>
    <vehicle id="114" depart="0.00">
       <route edges="0/0to0/1 0/1to1/1 1/1to1/2 1/2to0/2 0/2to0/3"/>
    </vehicle>
    <vehicle id="115" depart="0.00">
       <route edges="0/0to0/1 0/1to1/1 1/1to1/2 1/2to0/2 0/2to0/3"/>
    </vehicle>
    <vehicle id="116" depart="0.00">
       <route edges="0/0to0/1 0/1to1/1 1/1to1/2 1/2to0/2 0/2to0/3"/>
    </vehicle>
    <vehicle id="117" depart="0.00">
       <route edges="0/0to0/1 0/1to1/1 1/1to1/2 1/2to0/2 0/2to0/3"/>
    </vehicle>
    <vehicle id="118" depart="0.00">
       <route edges="0/0to0/1 0/1to1/1 1/1to1/2 1/2to0/2 0/2to0/3"/>
    </vehicle>
    <vehicle id="119" depart="0.00">
       <route edges="0/0to0/1 0/1to1/1 1/1to1/2 1/2to0/2 0/2to0/3"/>
    </vehicle>
    <vehicle id="120" depart="0.00">
       <route edges="0/0to0/1 0/1to1/1 1/1to1/2 1/2to0/2 0/2to0/3"/>
    </vehicle>
    <vehicle id="121" depart="0.00">
       <route edges="0/0to0/1 0/1to1/1 1/1to1/2 1/2to0/2 0/2to0/3"/>
    </vehicle>
    <vehicle id="122" depart="0.00">
       <route edges="0/0to0/1 0/1to1/1 1/1to1/2 1/2to0/2 0/2to0/3"/>
    </vehicle>
    <vehicle id="123" depart="0.00">
       <route edges="0/0to0/1 0/1to1/1 1/1to1/2 1/2to0/2 0/2to0/3"/>
    </vehicle>
    <vehicle id="124" depart="0.00">
       <route edges="0/0to0/1 0/1to1/1 1/1to1/2 1/2to0/2 0/2to0/3"/>
    </vehicle>
    <vehicle id="125" depart="0.00">
       <route edges="0/0to0/1 0/1to1/1 1/1to1/2 1/2to0/2 0/2to0/3"/>
    </vehicle>
    <vehicle id="126" depart="0.00">
       <route edges="0/0to0/1 0/1to1/1 1/1to1/2 1/2to0/2 0/2to0/3"/>
    </vehicle>
    <vehicle id="127" depart="0.00">
       <route edges="0/0to0/1 0/1to1/1 1/1to1/2 1/2to0/2 0/2to0/3"/>
    </vehicle>
    <vehicle id="128" depart="0.00">
       <route edges="0/0to0/1 0/1to1/1 1/1to1/2 1/2to0/2 0/2to0/3"/>	
    </vehicle>
    <vehicle id="129" depart="0.00">
       <route edges="0/0to0/1 0/1to1/1 1/1to1/2 1/2to0/2 0/2to0/3"/>
    </vehicle>
    <vehicle id="130" depart="0.00">
       <route edges="0/0to0/1 0/1to1/1 1/1to1/2 1/2to0/2 0/2to0/3"/>
    </vehicle>
    <vehicle id="131" depart="0.00">
       <route edges="0/0to0/1 0/1to1/1 1/1to1/2 1/2to0/2 0/2to0/3"/>
    </vehicle>
    <vehicle id="132" depart="0.00">
       <route edges="0/0to0/1 0/1to1/1 1/1to1/2 1/2to0/2 0/2to0/3"/>
    </vehicle>
    <vehicle id="133" depart="0.00">
       <route edges="0/0to0/1 0/1to1/1 1/1to1/2 1/2to0/2 0/2to0/3"/>
    </vehicle>
    <vehicle id="134" depart="0.00">
       <route edges="0/0to0/1 0/1to1/1 1/1to1/2 1/2to0/2 0/2to0/3"/>
    </vehicle>
    <vehicle id="135" depart="0.00">
       <route edges="0/0to0/1 0/1to1/1 1/1to1/2 1/2to0/2 0/2to0/3"/>
    </vehicle>
    <vehicle id="136" depart="0.00">
       <route edges="0/0to0/1 0/1to1/1 1/1to1/2 1/2to0/2 0/2to0/3"/>
    </vehicle>
    <vehicle id="137" depart="0.00">
       <route edges="0/0to0/1 0/1to1/1 1/1to1/2 1/2to0/2 0/2to0/3"/>
    </vehicle>
    <vehicle id="138" depart="0.00">
       <route edges="0/0to0/1 0/1to1/1 1/1to1/2 1/2to0/2 0/2to0/3"/>
    </vehicle>
    <vehicle id="139" depart="0.00">
       <route edges="0/0to0/1 0/1to1/1 1/1to1/2 1/2to0/2 0/2to0/3"/>
    </vehicle>
    <vehicle id="140" depart="0.00">
       <route edges="0/0to0/1 0/1to1/1 1/1to1/2 1/2to0/2 0/2to0/3"/>
    </vehicle>
    <vehicle id="141" depart="0.00">
       <route edges="0/0to0/1 0/1to1/1 1/1to1/2 1/2to0/2 0/2to0/3"/>
    </vehicle>
    <vehicle id="142" depart="0.00">
       <route edges="0/0to0/1 0/1to1/1 1/1to1/2 1/2to0/2 0/2to0/3"/>
    </vehicle>
    <vehicle id="143" depart="0.00">
       <route edges="0/0to0/1 0/1to1/1 1/1to1/2 1/2to0/2 0/2to0/3"/>
    </vehicle>
    <vehicle id="144" depart="0.00">
       <route edges="0/0to0/1 0/1to1/1 1/1to1/2 1/2to0/2 0/2to0/3"/>
    </vehicle>
    <vehicle id="145" depart="0.00">
       <route edges="0/0to0/1 0/1to1/1 1/1to1/2 1/2to0/2 0/2to0/3"/>
    </vehicle>
    <vehicle id="146" depart="0.00">
       <route edges="0/0to0/1 0/1to1/1 1/1to1/2 1/2to0/2 0/2to0/3"/>
    </vehicle>
    <vehicle id="147" depart="0.00">
       <route edges="0/0to0/1 0/1to1/1 1/1to1/2 1/2to0/2 0/2to0/3"/>
    </vehicle>
    <vehicle id="148" depart="0.00">
       <route edges="0/0to0/1 0/1to1/1 1/1to1/2 1/2to0/2 0/2to0/3"/>
    </vehicle>
    <vehicle id="149" depart="0.00">
       <route edges="0/0to0/1 0/1to1/1 1/1to1/2 1/2to0/2 0/2to0/3"/>
    </vehicle>
    <vehicle id="150" depart="0.00">
       <route edges="0/0to0/1 0/1to1/1 1/1to1/2 1/2to0/2 0/2to0/3"/>
    </vehicle>
    <vehicle id="151" depart="0.00">
       <route edges="0/0to0/1 0/1to1/1 1/1to1/2 1/2to0/2 0/2to0/3"/>
    </vehicle>
    <vehicle id="152" depart="0.00">
       <route edges="0/0to0/1 0/1to1/1 1/1to1/2 1/2to0/2 0/2to0/3"/>
    </vehicle>
    <vehicle id="153" depart="0.00">
       <route edges="0/0to0/1 0/1to1/1 1/1to1/2 1/2to0/2 0/2to0/3"/>
    </vehicle>
    <vehicle id="154" depart="0.00">
       <route edges="0/0to0/1 0/1to1/1 1/1to1/2 1/2to0/2 0/2to0/3"/>
    </vehicle>
    <vehicle id="155" depart="0.00">
       <route edges="0/0to0/1 0/1to1/1 1/1to1/2 1/2to0/2 0/2to0/3"/>
    </vehicle>
    <vehicle id="156" depart="0.00">
       <route edges="0/0to0/1 0/1to1/1 1/1to1/2 1/2to0/2 0/2to0/3"/>
    </vehicle>
    <vehicle id="157" depart="0.00">
       <route edges="0/0to0/1 0/1to1/1 1/1to1/2 1/2to0/2 0/2to0/3"/>
    </vehicle>
    <vehicle id="158" depart="0.00">
       <route edges="0/0to0/1 0/1to1/1 1/1to1/2 1/2to0/2 0/2to0/3"/>
    </vehicle>
    <vehicle id="159" depart="0.00">
       <route edges="0/0to0/1 0/1to1/1 1/1to1/2 1/2to0/2 0/2to0/3"/>
    </vehicle>
    <vehicle id="160" depart="0.00">
       <route edges="0/0to0/1 0/1to1/1 1/1to1/2 1/2to0/2 0/2to0/3"/>
    </vehicle>
    <vehicle id="161" depart="0.00">
       <route edges="0/0to0/1 0/1to1/1 1/1to1/2 1/2to0/2 0/2to0/3"/>
    </vehicle>
    <vehicle id="162" depart="0.00">
       <route edges="0/0to0/1 0/1to1/1 1/1to1/2 1/2to0/2 0/2to0/3"/>
    </vehicle>
    <vehicle id="163" depart="0.00">
       <route edges="0/0to0/1 0/1to1/1 1/1to1/2 1/2to0/2 0/2to0/3"/>
    </vehicle>
    <vehicle id="164" depart="0.00">
       <route edges="0/0to0/1 0/1to1/1 1/1to1/2 1/2to0/2 0/2to0/3"/>
    </vehicle>
    <vehicle id="165" depart="0.00">
       <route edges="0/0to0/1 0/1to1/1 1/1to1/2 1/2to0/2 0/2to0/3"/>
    </vehicle>
    <vehicle id="166" depart="0.00">
       <route edges="0/0to0/1 0/1to1/1 1/1to1/2 1/2to0/2 0/2to0/3"/>
    </vehicle>
    <vehicle id="167" depart="0.00">
       <route edges="0/0to0/1 0/1to1/1 1/1to1/2 1/2to0/2 0/2to0/3"/>
    </vehicle>
    <vehicle id="168" depart="0.00">
       <route edges="0/0to0/1 0/1to1/1 1/1to1/2 1/2to0/2 0/2to0/3"/>
    </vehicle>
    <vehicle id="169" depart="0.00">
       <route edges="0/0to0/1 0/1to1/1 1/1to1/2 1/2to0/2 0/2to0/3"/>
    </vehicle>
    <vehicle id="170" depart="0.00">
       <route edges="0/0to0/1 0/1to1/1 1/1to1/2 1/2to0/2 0/2to0/3"/>
    </vehicle>
    <vehicle id="171" depart="0.00">
       <route edges="0/0to0/1 0/1to1/1 1/1to1/2 1/2to0/2 0/2to0/3"/>
    </vehicle>
    <vehicle id="172" depart="0.00">
       <route edges="0/0to0/1 0/1to1/1 1/1to1/2 1/2to0/2 0/2to0/3"/>
    </vehicle>
    <vehicle id="173" depart="0.00">
       <route edges="0/0to0/1 0/1to1/1 1/1to1/2 1/2to0/2 0/2to0/3"/>
    </vehicle>
    <vehicle id="174" depart="0.00">
       <route edges="0/0to0/1 0/1to1/1 1/1to1/2 1/2to0/2 0/2to0/3"/>
    </vehicle>
    <vehicle id="175" depart="0.00">
       <route edges="0/0to0/1 0/1to1/1 1/1to1/2 1/2to0/2 0/2to0/3"/>
    </vehicle>
    <vehicle id="176" depart="0.00">
       <route edges="0/0to0/1 0/1to1/1 1/1to1/2 1/2to0/2 0/2to0/3"/>
    </vehicle>
    <vehicle id="177" depart="0.00">
       <route edges="0/0to0/1 0/1to1/1 1/1to1/2 1/2to0/2 0/2to0/3"/>
    </vehicle>
    <vehicle id="178" depart="0.00">
       <route edges="0/0to0/1 0/1to1/1 1/1to1/2 1/2to0/2 0/2to0/3"/>
    </vehicle>
    <vehicle id="179" depart="0.00">
       <route edges="0/0to0/1 0/1to1/1 1/1to1/2 1/2to0/2 0/2to0/3"/>
    </vehicle>
    <vehicle id="180" depart="0.00">
       <route edges="0/0to0/1 0/1to1/1 1/1to1/2 1/2to0/2 0/2to0/3"/>
    </vehicle>
    <vehicle id="181" depart="0.00">
       <route edges="0/0to0/1 0/1to1/1 1/1to1/2 1/2to0/2 0/2to0/3"/>
    </vehicle>
    <vehicle id="182" depart="0.00">
       <route edges="0/0to0/1 0/1to1/1 1/1to1/2 1/2to0/2 0/2to0/3"/>
    </vehicle>
    <vehicle id="183" depart="0.00">
       <route edges="0/0to0/1 0/1to1/1 1/1to1/2 1/2to0/2 0/2to0/3"/>
    </vehicle>
    <vehicle id="184" depart="0.00">
       <route edges="0/0to0/1 0/1to1/1 1/1to1/2 1/2to0/2 0/2to0/3"/>
    </vehicle>
    <vehicle id="185" depart="0.00">
       <route edges="0/0to0/1 0/1to1/1 1/1to1/2 1/2to0/2 0/2to0/3"/>
    </vehicle>
    <vehicle id="186" depart="0.00">
       <route edges="0/0to0/1 0/1to1/1 1/1to1/2 1/2to0/2 0/2to0/3"/>
    </vehicle>
    <vehicle id="187" depart="0.00">
       <route edges="0/0to0/1 0/1to1/1 1/1to1/2 1/2to0/2 0/2to0/3"/>
    </vehicle>
    <vehicle id="188" depart="0.00">
       <route edges="0/0to0/1 0/1to1/1 1/1to1/2 1/2to0/2 0/2to0/3"/>
    </vehicle>
    <vehicle id="189" depart="0.00">
       <route edges="0/0to0/1 0/1to1/1 1/1to1/2 1/2to0/2 0/2to0/3"/>
    </vehicle>
    <vehicle id="190" depart="0.00">
       <route edges="0/0to0/1 0/1to1/1 1/1to1/2 1/2to0/2 0/2to0/3"/>
    </vehicle>
    <vehicle id="191" depart="0.00">
       <route edges="0/0to0/1 0/1to1/1 1/1to1/2 1/2to0/2 0/2to0/3"/>
    </vehicle>
    <vehicle id="192" depart="0.00">
       <route edges="0/0to0/1 0/1to1/1 1/1to1/2 1/2to0/2 0/2to0/3"/>
    </vehicle>
    <vehicle id="193" depart="0.00">
       <route edges="0/0to0/1 0/1to1/1 1/1to1/2 1/2to0/2 0/2to0/3"/>
    </vehicle>
    <vehicle id="194" depart="0.00">
       <route edges="0/0to0/1 0/1to1/1 1/1to1/2 1/2to0/2 0/2to0/3"/>
    </vehicle>
    <vehicle id="195" depart="0.00">
       <route edges="0/0to0/1 0/1to1/1 1/1to1/2 1/2to0/2 0/2to0/3"/>
    </vehicle>
    <vehicle id="196" depart="0.00">
       <route edges="0/0to0/1 0/1to1/1 1/1to1/2 1/2to0/2 0/2to0/3"/>
    </vehicle>
    <vehicle id="197" depart="0.00">
       <route edges="0/0to0/1 0/1to1/1 1/1to1/2 1/2to0/2 0/2to0/3"/>
    </vehicle>
    <vehicle id="198" depart="0.00">
       <route edges="0/0to0/1 0/1to1/1 1/1to1/2 1/2to0/2 0/2to0/3"/>
    </vehicle>
    <vehicle id="199" depart="0.00">
       <route edges="0/0to0/1 0/1to1/1 1/1to1/2 1/2to0/2 0/2to0/3"/>
    </vehicle>
	<vehicle id="200" depart="0.00">
       <route edges="3/0to3/1 3/1to2/1 2/1to2/2 2/2to3/2 3/2to3/3"/>
    </vehicle>
    <vehicle id="201" depart="0.00">
       <route edges="3/0to3/1 3/1to2/1 2/1to2/2 2/2to3/2 3/2to3/3"/>
    </vehicle>
    <vehicle id="202" depart="0.00">
       <route edges="3/0to3/1 3/1to2/1 2/1to2/2 2/2to3/2 3/2to3/3"/>
    </vehicle>
    <vehicle id="203" depart="0.00">
       <route edges="3/0to3/1 3/1to2/1 2/1to2/2 2/2to3/2 3/2to3/3"/>
    </vehicle>
    <vehicle id="204" depart="0.00">
       <route edges="3/0to3/1 3/1to2/1 2/1to2/2 2/2to3/2 3/2to3/3"/>
    </vehicle>
    <vehicle id="205" depart="0.00">
       <route edges="3/0to3/1 3/1to2/1 2/1to2/2 2/2to3/2 3/2to3/3"/>
    </vehicle>
    <vehicle id="206" depart="0.00">
       <route edges="3/0to3/1 3/1to2/1 2/1to2/2 2/2to3/2 3/2to3/3"/>
    </vehicle>
    <vehicle id="207" depart="0.00">
       <route edges="3/0to3/1 3/1to2/1 2/1to2/2 2/2to3/2 3/2to3/3"/>
    </vehicle>
    <vehicle id="208" depart="0.00">
       <route edges="3/0to3/1 3/1to2/1 2/1to2/2 2/2to3/2 3/2to3/3"/>
    </vehicle>
    <vehicle id="209" depart="0.00">
       <route edges="3/0to3/1 3/1to2/1 2/1to2/2 2/2to3/2 3/2to3/3"/>
    </vehicle>
    <vehicle id="210" depart="0.00">
       <route edges="3/0to3/1 3/1to2/1 2/1to2/2 2/2to3/2 3/2to3/3"/>	
    </vehicle>
    <vehicle id="211" depart="0.00">
       <route edges="3/0to3/1 3/1to2/1 2/1to2/2 2/2to3/2 3/2to3/3"/>
    </vehicle>
    <vehicle id="212" depart="0.00">
       <route edges="3/0to3/1 3/1to2/1 2/1to2/2 2/2to3/2 3/2to3/3"/>
    </vehicle>
    <vehicle id="213" depart="0.00">
       <route edges="3/0to3/1 3/1to2/1 2/1to2/2 2/2to3/2 3/2to3/3"/>
    </vehicle>
    <vehicle id="214" depart="0.00">
       <route edges="3/0to3/1 3/1to2/1 2/1to2/2 2/2to3/2 3/2to3/3"/>
    </vehicle>
    <vehicle id="215" depart="0.00">
       <route edges="3/0to3/1 3/1to2/1 2/1to2/2 2/2to3/2 3/2to3/3"/>
    </vehicle>
    <vehicle id="216" depart="0.00">
       <route edges="3/0to3/1 3/1to2/1 2/1to2/2 2/2to3/2 3/2to3/3"/>
    </vehicle>
    <vehicle id="217" depart="0.00">
       <route edges="3/0to3/1 3/1to2/1 2/1to2/2 2/2to3/2 3/2to3/3"/>
    </vehicle>
    <vehicle id="218" depart="0.00">
       <route edges="3/0to3/1 3/1to2/1 2/1to2/2 2/2to3/2 3/2to3/3"/>
    </vehicle>
    <vehicle id="219" depart="0.00">
       <route edges="3/0to3/1 3/1to2/1 2/1to2/2 2/2to3/2 3/2to3/3"/>
    </vehicle>
    <vehicle id="220" depart="0.00">
       <route edges="3/0to3/1 3/1to2/1 2/1to2/2 2/2to3/2 3/2to3/3"/>
    </vehicle>
    <vehicle id="221" depart="0.00">
       <route edges="3/0to3/1 3/1to2/1 2/1to2/2 2/2to3/2 3/2to3/3"/>
    </vehicle>
    <vehicle id="222" depart="0.00">
       <route edges="3/0to3/1 3/1to2/1 2/1to2/2 2/2to3/2 3/2to3/3"/>
    </vehicle>
    <vehicle id="223" depart="0.00">
       <route edges="3/0to3/1 3/1to2/1 2/1to2/2 2/2to3/2 3/2to3/3"/>
    </vehicle>
    <vehicle id="224" depart="0.00">
       <route edges="3/0to3/1 3/1to2/1 2/1to2/2 2/2to3/2 3/2to3/3"/>
    </vehicle>
    <vehicle id="225" depart="0.00">
       <route edges="3/0to3/1 3/1to2/1 2/1to2/2 2/2to3/2 3/2to3/3"/>
    </vehicle>
    <vehicle id="226" depart="0.00">
       <route edges="3/0to3/1 3/1to2/1 2/1to2/2 2/2to3/2 3/2to3/3"/>
    </vehicle>
    <vehicle id="227" depart="0.00">
       <route edges="3/0to3/1 3/1to2/1 2/1to2/2 2/2to3/2 3/2to3/3"/>
    </vehicle>
    <vehicle id="228" depart="0.00">
       <route edges="3/0to3/1 3/1to2/1 2/1to2/2 2/2to3/2 3/2to3/3"/>
    </vehicle>
    <vehicle id="229" depart="0.00">
       <route edges="3/0to3/1 3/1to2/1 2/1to2/2 2/2to3/2 3/2to3/3"/>
    </vehicle>
    <vehicle id="230" depart="0.00">
       <route edges="3/0to3/1 3/1to2/1 2/1to2/2 2/2to3/2 3/2to3/3"/>
    </vehicle>
    <vehicle id="231" depart="0.00">
       <route edges="3/0to3/1 3/1to2/1 2/1to2/2 2/2to3/2 3/2to3/3"/>
    </vehicle>
    <vehicle id="232" depart="0.00">
       <route edges="3/0to3/1 3/1to2/1 2/1to2/2 2/2to3/2 3/2to3/3"/>
    </vehicle>
    <vehicle id="233" depart="0.00">
       <route edges="3/0to3/1 3/1to2/1 2/1to2/2 2/2to3/2 3/2to3/3"/>
    </vehicle>
    <vehicle id="234" depart="0.00">
       <route edges="3/0to3/1 3/1to2/1 2/1to2/2 2/2to3/2 3/2to3/3"/>
    </vehicle>
    <vehicle id="235" depart="0.00">
       <route edges="3/0to3/1 3/1to2/1 2/1to2/2 2/2to3/2 3/2to3/3"/>
    </vehicle>
    <vehicle id="236" depart="0.00">
       <route edges="3/0to3/1 3/1to2/1 2/1to2/2 2/2to3/2 3/2to3/3"/>
    </vehicle>
    <vehicle id="237" depart="0.00">